<?xml version="1.0" encoding="UTF-8"?>

<!-- generated on 01/29/20 11:48:59 by Eclipse SUMO netedit Version 1.3.1
<configuration xmlns:xsi="http://www.w3.org/2001/XMLSchema-instance" xsi:noNamespaceSchemaLocation="http://sumo.dlr.de/xsd/netconvertConfiguration.xsd">

    <input>
        <sumo-net-file value="D:\tomas\Documents\Bolsa_Mobiwise\SUMO\Macro_EcoIndicator\code\SA\matlab_sumo_heatmaps\code\Porto.net.xml"/>
    </input>

    <output>
        <output-file value="D:\tomas\Documents\Bolsa_Mobiwise\SUMO\Macro_EcoIndicator\code\SA\matlab_sumo_heatmaps\code\Porto.net.xml"/>
    </output>

    <processing>
        <geometry.max-grade.fix value="false"/>
        <offset.disable-normalization value="true"/>
        <opposites.guess.fix-lengths value="true"/>
        <lefthand value="false"/>
    </processing>

    <junctions>
        <no-turnarounds value="true"/>
        <junctions.corner-detail value="5"/>
        <junctions.limit-turn-speed value="5.5"/>
        <rectangular-lane-cut value="false"/>
    </junctions>

    <pedestrian>
        <walkingareas value="false"/>
    </pedestrian>

    <netedit>
        <additional-files value="C:\Porto_28_01_2020\6PM7PM\LoopDetectors.xml"/>
    </netedit>

</configuration>
-->

<additional xmlns:xsi="http://www.w3.org/2001/XMLSchema-instance" xsi:noNamespaceSchemaLocation="http://sumo.dlr.de/xsd/additional_file.xsd">
   </additional>

