<routes>
<vType id="SCar" length="4.75" minGap="1.20" maxSpeed="22.22" vClass="private" color="yellow" decel="5.5"/><vType id="Car" length="4.75" minGap="1.20" maxSpeed="22.22" vClass="private" color="240,230,2" decel="5.5"/>	<route id="route0" edges="1 2 536714314#3 637225052 480146201 159959890 480146203 480146206 480146205 549444954 434878390#0 434878390#1 549444950 549444961 549444965 549444969 549444982#0 549444982#1 549444982#2 448850571 159959891#0 159959891#1 159959891#2 159959891#3 549269426#0 549269426#1 549269427 549269428#0 549269428#1 549269428#2 549269428#3 120692681#0 120692681#1 304690306 13263613#0 13263613#1 13263613#2 13263613#3 13265074#0 13265074#1 13265074#2 13265074#3 608419462#3 608419462#4 453762948#0 453762948#1 453762948#2 453762948#2.130 453762948#3 704509573#0 704509573#1 704509573#2 704509573#3 704509573#4 704509573#5 704509573#6 704509573#7 704509573#8 704509573#9 704509573#10 704509573#11 704509573#12 453762947 453762946 453762944#0 453762944#1 453762944#2 453762944#3 453762944#4 706644344 724454820 724454821 580264834 388048413 425318823 425318823.136 13715172 189908446 608418578#0 608418578#1 608418573#0 608418573#1 454038641 705491647#0 gneE37"/>
	<route id="route1" edges="49982592 14327274 211924702#1 14327260#0 14327260#1 14327260#2 14327505#2 14327505#3 gneE23 14327522#0 14327522#1 14327522#2 14327522#3 14327522#4 14327522#5 14327522#6 14328446#4 14328446#5 14328446#6 14328446#7 14328446#8 14328446#9 14328446#10 14328446#11 14328446#12 14328446#13 14328446#14 14328446#15 434878400#0 434878400#1 434878401#0 434878401#1 434878401#2 434878401#3 434878401#4 210328137 290580546 726566450 304688482#0 304688482#1 38336634#2 38336634#3 38336634#4 38336634#5 434872540 676370076 676370075#0 676370075#1 676370074 643196092 34607524 642609452 642609449 498298757#0 498298757#1 211342284 8367092#0 8367092#1 8367092#2 8367092#3 8367092#4 8367092#5 8367092#6 8367092#7 434872537#0 434872537#1 128245797 128244780#0 128244780#1 13854847#0 13854847#1 13854847#2 608418576 189908446 608418578#0 608418578#1 608418573#0 608418573#1 454038641 705491647#0 gneE37"/>
	<route id="route2" edges="367461723 4259345 478882416 478882415 478882417 478882414 478882413 29036509 479365566 479365567 479365565 479365568 13797785 37113031 479192142 95841138 37113028 479192141 479192140 35044067 479192139 479192137 304693637 479192136 479192135 453274492 479198388 479198387 453274495 479198386 479198382 35044072#2 167487481 35474708 -30912902#1 -30912902#0 39654094#1 39654094#2 251256098 39654345 453493822#0 453493822#1 453493822#2 453493822#3 453493822#4 453493822#5 610238564 13715172 189908446 608418578#0 608418578#1 608418573#0 608418573#1 454038641 705491647#0 gneE37"/>
	<route id="route3" edges="460839284 12297710#0 12297710#1 95841153 95841130 13848688#0 13848688#1 13848688#2 482276568 482276567 482276569#0 482240916#0 482276565#1 304680072 -224637998 gneE4 -14326205#4 -14326205#3 -14326205#2 -14326205#1 -14326205#0 14326182#0 14326182#1 14326258 14326256#0 gneE18 14326256#2 14326256#3 434884635#0 434884635#1 128245299 167487341 167487343 128245297 608418577 608418580#0 608418580#1 608418576 189908446 608418578#0 608418578#1 608418573#0 608418573#1 454038641 705491647#0 gneE37"/>
	<route id="route4" edges="-549249237#0 -391839901#3 -391839901#2 -391839901#1 -391839901#0 -391839883 -14328611 8367103#0 8367103#1 14328446#0 14328446#1 14328446#2 14328446#3 14328446#4 14328446#5 14328446#6 14328446#7 14328446#8 14328446#9 14328446#10 14328446#11 14328446#12 14328446#13 14328446#14 14328446#15 434878400#0 434878400#1 434878401#0 434878401#1 434878401#2 434878401#3 434878401#4 210328137 290580546 726566450 304688482#0 304688482#1 38336634#2 38336634#3 38336634#4 38336634#5 434872540 676370076 676370075#0 676370075#1 676370074 643196092 34607524 642609452 642609449 498298757#0 498298757#1 211342284 8367092#0 8367092#1 8367092#2 8367092#3 8367092#4 8367092#5 8367092#6 8367092#7 434872537#0 434872537#1 128245797 128244780#0 128244780#1 13854847#0 13854847#1 13854847#2 608418576 189908446 608418578#0 608418578#1 608418573#0 608418573#1 454038641 705491647#0 gneE37"/>
	<route id="route5" edges="434879925#0 434879925#1 434879925#2 434879925#3 434879925#4 252543837 482331424#0 482331424#1 482331424#2 482331424#3 482331424#4 482331424#5 482331424#6 482331424#7 482331424#8 482331424#9 482331424#10 482331424#11 482331424#12 608419462#4 453762948#0 453762948#1 453762948#2 453762948#2.130 453762948#3 704509573#0 704509573#1 704509573#2 704509573#3 704509573#4 704509573#5 704509573#6 704509573#7 704509573#8 704509573#9 704509573#10 704509573#11 704509573#12 453762947 453762946 453762944#0 453762944#1 453762944#2 453762944#3 453762944#4 706644344 724454820 724454821 580264834 388048413 425318823 425318823.136 13715172 189908446 608418578#0 608418578#1 608418573#0 608418573#1 454038641 705491647#0 gneE37"/>
	<route id="route6" edges="110801277#0 110801277#1 110801277#2 110801268 135411080#0 135411080#1 189908445#0 189908445#1 224646233#0 224646233#1 224646233#2 224646233#3 224646233#4 224646233#5 224646233#6 224646233#7 250949165#0 250949165#1 250949165#3 250949165#4 705491646#0 705491646#1 705491648 608418574#0 608418574#1 608418574#2 608418574#3 608418574#4 608418574#5 608418574#6 608418577 608418580#0 608418580#1 608418576 189908446 608418578#0 608418578#1 608418573#0 608418573#1 454038641 705491647#0 gneE37"/>
	<route id="route7" edges="479198389 35044068 453274492 479198388 479198387 453274495 479198386 479198382 35044072#2 167487481 35474708 -30912902#1 -30912902#0 39654094#1 39654094#2 251256098 39654345 453493822#0 453493822#1 453493822#2 453493822#3 453493822#4 453493822#5 610238564 13715172 189908446 608418578#0 608418578#1 608418573#0 608418573#1 454038641 705491647#0 gneE37"/>
	<route id="route8" edges="256605510 13798688#0 13798688#1 13798688#2 13798697 448867800 -228569586 -617765086#1 -617765086#0 -448568808#8 -448568808#7 -448568808#6 -448568808#5 -448568808#4 -448568808#3 -448568808#2 -448568808#1 -448568808#0 -228569587#1 -228569587#0 -30912902#1 -30912902#0 39654094#1 39654094#2 251256098 39654345 453493822#0 453493822#1 453493822#2 453493822#3 453493822#4 453493822#5 610238564 13715172 189908446 608418578#0 608418578#1 608418573#0 608418573#1 454038641 705491647#0 gneE37"/>
	<route id="route9" edges="100 101 106440984 479127826 479127827 95791510 95791517 31573502 223288611 223288612 223288609 223288613 -12319876#1 -12319876#0 447104331 386578485 386578516 12391255 212711378 454037681 212711375#0 212711375#1 212711375#2 212711375#3 232445175#0 232445175#1 232445175#2 232445175#3 608418573#1 454038641 705491647#0 gneE37"/>
	<route id="route10" edges="26119992#11 304688472 27149319#0 27149319#1 212706766#0 212706766#1 212706762#0 212706762#1 207634492 482291295 482291787 482291294 167487372#0 167487372#1 167487372#2 167487370 725917413 725917412 725917115 725917117 128245298#0 128245298#1 128245297 608418577 608418580#0 608418580#1 608418576 189908446 608418578#0 608418578#1 608418573#0 608418573#1 454038641 705491647#0 gneE37"/>
	<route id="route11" edges="34774629#0 34774629#1 34774629#2 34774629#3 34798406 241364281 13798089 34777927 480140399 189312418 480140407#0 480140407#1 241364283 241364284#0 241364284#1 241364284#2 35112010#1 100862795 34772223 252525262#0 252525262#1 252525262#2 453762948#3 704509573#0 704509573#1 704509573#2 704509573#3 704509573#4 704509573#5 704509573#6 704509573#7 704509573#8 704509573#9 704509573#10 704509573#11 704509573#12 453762947 453762946 453762944#0 453762944#1 453762944#2 453762944#3 453762944#4 706644344 724454820 724454821 580264834 388048413 425318823 425318823.136 13715172 189908446 608418578#0 608418578#1 608418573#0 608418573#1 454038641 705491647#0 gneE37"/>
	<route id="route12" edges="480148041 34711126 480148058 478886770 478886769 478886767 478886768 480149866 35006697 478882419 480142667 478882418 478882416 478882415 478882417 478882414 478882413 29036509 479365566 479365567 479365565 479365568 13797785 37113031 479192142 95841138 37113028 479192141 479192140 35044067 479192139 479192137 304693637 479192136 479192135 453274492 479198388 479198387 453274495 479198386 479198382 35044072#2 167487481 35474708 -30912902#1 -30912902#0 39654094#1 39654094#2 251256098 39654345 453493822#0 453493822#1 453493822#2 453493822#3 453493822#4 453493822#5 610238564 13715172 189908446 608418578#0 608418578#1 608418573#0 608418573#1 454038641 705491647#0 gneE37"/>
	<route id="route13" edges="-238872916#7 -238872916#6 -238872916#5 -238872916#4 -238872916#3 -238872916#2 -238872916#1 -238872916#0 -12544650 -13278159#1 -13278159#0 226908041#0 226908041#1 -420021609 419935504 -217344337#5 -217344337#4 -217344337#3 -217344337#2 -217344337#1 -217344337#0 -216891254#2 -216891254#1 -216891254#0 -643548708 -304684297#1 -304684297#0 349620089 -715176795#1 -715176795#0 -307804461 307804459#0 307804459#1 715176797#0 715176797#1 715176796#0 715176796#1 715176796#2 715176796#3 715176796#4 715176796#5 715176796#6 715176796#7 715176796#8 715176796#9 190128487#0 190128487#1 190128487#2 190128487#3 190128487#4 190128487#5 190128487#6 215162243#0 215162243#1 26119900#0 26119900#1 26119880 210073259 233055818 95841157 434860177#0 434860177#1 156211618#0 156211618#1 156211618#2 167487363#0 167487363#1 167487363#2 36748084#0 36748084#1 36748084#2 482296561 482296560#0 482296560#1 212706762#0 212706762#1 207634492 482291295 482291787 482291294 167487372#0 167487372#1 167487372#2 167487370 725917413 725917412 725917115 725917117 128245298#0 128245298#1 128245297 608418577 608418580#0 608418580#1 608418576 189908446 608418578#0 608418578#1 608418573#0 608418573#1 454038641 705491647#0 gneE37"/>
	<route id="route14" edges="13714843#0 13714843#1 13714843#2 13714843#3 39654094#0 39654094#1 39654094#2 251256098 39654345 453493822#0 453493822#1 453493822#2 453493822#3 453493822#4 453493822#5 610238564 13715172 189908446 608418578#0 608418578#1 608418573#0 608418573#1 454038641 705491647#0 gneE37"/>
	<route id="route15" edges="96151239#5 96151239#6 96151239#7 96151239#8 96151239#9 13278020#0 13278020#1 13278020#2 13278020#3 13278020#4 13278020#5 13278020#6 13278020#7 13278020#8 420021610 419935504 -217344337#5 -217344337#4 -217344337#3 -217344337#2 -217344337#1 -217344337#0 -216891254#2 -216891254#1 -216891254#0 -643548708 -304684297#1 -304684297#0 349620089 -715176795#1 -715176795#0 -307804461 307804459#0 307804459#1 715176797#0 715176797#1 715176796#0 715176796#1 715176796#2 715176796#3 715176796#4 715176796#5 715176796#6 715176796#7 715176796#8 715176796#9 190128487#0 190128487#1 190128487#2 190128487#3 190128487#4 190128487#5 190128487#6 215162243#0 215162243#1 26119900#0 26119900#1 26119880 210073259 233055818 95841157 434860177#0 434860177#1 156211618#0 156211618#1 156211618#2 167487363#0 167487363#1 167487363#2 36748084#0 36748084#1 36748084#2 482296561 482296560#0 482296560#1 212706762#0 212706762#1 207634492 482291295 482291787 482291294 167487372#0 167487372#1 167487372#2 167487370 725917413 725917412 725917115 725917117 128245298#0 128245298#1 128245297 608418577 608418580#0 608418580#1 608418576 189908446 608418578#0 608418578#1 608418573#0 608418573#1 454038641 705491647#0 gneE37"/>
	<route id="route16" edges="-224648421#0 -224646232#4 -224646232#3 -224646232#2 -224646232#1 -224646232#0 28996911#0 28996911#1 28996911#2 28996911#3 28996911#4 28996911#5 28996911#6 250949165#0 250949165#1 250949165#3 250949165#4 705491646#0 705491646#1 705491648 608418574#0 608418574#1 608418574#2 608418574#3 608418574#4 608418574#5 608418574#6 608418577 608418580#0 608418580#1 608418576 189908446 608418578#0 608418578#1 608418573#0 608418573#1 454038641 705491647#0 gneE37"/>
	<route id="route17" edges="31721081#2 31721081#3 31721081#4 -321496804#3 14334161#0 14334161#1 14334161#2 391839895#0 391839895#1 391839895#2 391839895#3 391839895#4 -391839883 -14328611 8367103#0 8367103#1 14328446#0 14328446#1 14328446#2 14328446#3 14328446#4 14328446#5 14328446#6 14328446#7 14328446#8 14328446#9 14328446#10 14328446#11 14328446#12 14328446#13 14328446#14 14328446#15 434878400#0 434878400#1 434878401#0 434878401#1 434878401#2 434878401#3 434878401#4 210328137 290580546 726566450 304688482#0 304688482#1 38336634#2 38336634#3 38336634#4 38336634#5 434872540 676370076 676370075#0 676370075#1 676370074 643196092 34607524 642609452 642609449 498298757#0 498298757#1 211342284 8367092#0 8367092#1 8367092#2 8367092#3 8367092#4 8367092#5 8367092#6 8367092#7 434872537#0 434872537#1 128245797 128244780#0 128244780#1 13854847#0 13854847#1 13854847#2 608418576 189908446 608418578#0 608418578#1 608418573#0 608418573#1 454038641 705491647#0 gneE37"/>
	<route id="route18" edges="-36928561 227574867#0 227574867#1 227574867#2 227574867#3 227574867#4 227574867#5 227574867#6 227574867#7 98835813#0 98835813#1 386578584#5 gneE28 446557314#0 446557314#1 446557314#2 -12319876#1 -12319876#0 447104331 386578485 386578516 12391255 212711378 454037681 212711375#0 212711375#1 212711375#2 212711375#3 232445175#0 232445175#1 232445175#2 232445175#3 608418573#1 454038641 705491647#0 gneE37"/>
	<route id="route19" edges="-262474849#1 -262474849#0 252518642#0 252518642#1 252518644#0 252518644#1 252518644#2 13802005 259888928#0 259888928#1 259888928#2 259888928#3 -51230332#3 -51230332#2 -51230332#1 -51230332#0 28193881 14326733 608421700#0 608421700#1 608421700#2 608421700#3 608421700#4 595164142 28193886 156211620 386286210 434860177#0 434860177#1 156211618#0 156211618#1 156211618#2 167487363#0 167487363#1 167487363#2 36748084#0 36748084#1 36748084#2 482296561 482296560#0 482296560#1 212706762#0 212706762#1 207634492 482291295 482291787 482291294 167487372#0 167487372#1 167487372#2 167487370 725917413 725917412 725917115 725917117 128245298#0 128245298#1 128245297 608418577 608418580#0 608418580#1 608418576 189908446 608418578#0 608418578#1 608418573#0 608418573#1 454038641 705491647#0 gneE37"/>

	<route id="sroute0" edges="367461723 4259345 478882416 478882415 478882417 478882414 478882413 29036509 479365566 479365567 479365565 480083543 13797865#0 13797865#1 13798716#2 -256605510"/>
	<route id="sroute1" edges="96151239#5 96151239#6 96151239#7 96151239#8 96151239#9 13278020#0 13278020#1 13278020#2 13278020#3 13278020#4 13278020#5 13278020#6 13278020#7 13278020#8 420021610 420021609 226908049 13278159#0 13278159#1 12544650 238872916#0 238872916#1 238872916#2 238872916#3 238872916#4 238872916#5 238872916#6 238872916#7"/>
	<route id="sroute2" edges="367461723 4259345 478882416 478882415 478882417 478882414 478882413 13798158 13798192 13798291#0 547657329 -34774629#2 -34774629#1 -34774629#0"/>
	<route id="sroute3" edges="460839284 35539786#0 35539786#1 447313060 63202748 447313061 63202744 13703057 13703054 479165875 453955769 479181126 479127855 479127854 106441015 398030859 398035550 398030858 479127828 105482346 479187305 430528809 479187304 453274475 35047583 35047585 479187301#0 479187301#1 35044065 35044064 479192144 479192143 95841134 95841156 37113029 453274470 13797813 479365564 479365561 4257028 479365562 479365563 478886779 478882411 478886778 345566829 345566831 478886777 478886775 478886776 478886774 478886773 478886772 478886771 29036508 480146192 480146191 480148052 35006698"/>
	<route id="sroute4" edges="460839284 35539786#0 35539786#1 447313060 63202748 447313061 63202744 13703057 13703054 479165875 453955769 479181126 479127855 479127854 106441015 398030859 398035550 398030858 479127828 105482346 479187305 430528809 479187304 453274475 35047583 35047585 479187301#0 479187301#1 35044065 35044064 479192144 479192143 95841134 95841156 37113029 453274470 13797813 479365564 479365561 4257028 479365562 479365563 478886779 478882411 478886778 345566829 345566831 478886777 478886775 478886776 478886774 478886773 478886772 27293116 27293116.145 480146204 159959889 480146202 480146200 480146199 480146196 480146195 29036519#0 29036519#1 549454264#0 549454264#1"/>
	<route id="sroute5" edges="460839284 35539786#0 35539786#1 447313060 63202748 447313061 63202744 13703057 13703054 479165875 453955769 479181126 479127855 479127854 106441015 398030859 398035550 398030858 479127828 105482346 479187305 430528809 479187304 453274475 35047583 35047585 479187301#0 479187301#1 35044065 35044064 479192144 479192143 95841134 95841156 37113029 453274470 13797813 479365564 479365561 4257028 479365562 479365563 478886779 478882411 478886778 4259341 345566834 29036513 367461726 367461722"/>
	<route id="sroute6" edges="34774629#0 34774629#1 34774629#2 34774629#3 34798406 241364281 13798089 34777927 480140399 189312418 480140407#0 480140407#1 241364283 241364284#0 241364284#1 241364284#2 241364284#3 241364284#4 30912861#0 30912861#1 30912861#2 212710690#0 212710690#1 212710690#2 212710690#3 -482331424#11 -482331424#10 -482331424#9 -482331424#8 -482331424#7 -482331424#6 -482331424#5 -482331424#4 -482331424#3 -482331424#2 -482331424#1 -482331424#0 -252543837 -434879925#4 -434879925#3 -434879925#2 -434879925#1 -434879925#0"/>
	<route id="sroute7" edges="460839284 35539786#0 35539786#1 447313060 63202748 447313061 63202744 13703057 13703054 479165875 453955769 479181126 479127855 479127854 386578590 663328755 479127853 663340772 8137307 453764134#0 453764134#1 386578584#3 446557315#0 446557315#1 446557317#0 446557317#1 446557317#2 446557317#3 446557317#4 446557317#5 36928561"/>
	<route id="sroute8" edges="-36928561 227574867#0 227574867#1 227574867#2 227574867#3 227574867#4 227574867#5 227574867#6 227574867#7 98835813#0 98835813#1 386578584#5 386578584#6 386578584#7 386578487#2 386578584#8 386578584#0 386578584#1 12386249#0 12386249#1 479127842 479127840 479127843 479127841 479127837 479127838 95791550 479127835 398030860 95791537 453763721"/>
	<route id="sroute9" edges="479127834 479127834.42 479127833 4256484 479127846 106441012 479127845 479127844 479181462 479181124 479178724 479181127 479178722 479178723 597084097 597084096 453955770 13703046 13703039 63202741 479165071 479165072 415566516 447313531 447313062"/>
	<route id="sroute10" edges="34774629#0 34774629#1 34774629#2 34774629#3 13798046 480084928 479365566 479365567 479365565 479365568 13797785 37113031 479192142 95841138 37113028 479192141 479192140 35044067 479192139 35044066 479192138 479187303 479192145 35047582 35047581 479127849 398030856 479127848 398030857 479127847 398030861 105482347 479127846 106441012 479127845 479127844 479181462 479181124 479178724 479181127 479178722 479178723 597084097 597084096 453955770 13703046 13703039 63202741 479165071 479165072 415566516 447313531 447313062"/>
	<route id="sroute11" edges="-549249237#0 -391839901#3 -391839901#2 -391839901#1 -391839901#0 -391839883 -14328611 8367103#0 8367103#1 34916303#0 34916303#1 221905591#0 221905591#1 221905591#2 221905591#3 14327545#0 14327545#1 14327867 52704506 142214759#0 142214759#1 142214759#2 142214759#3 142214759#4 142214759#5 142214759#6 142214759#7 142214759#8 190128487#0 190128487#1 190128487#2 190128487#3 190128487#4 190128487#5 190128487#6 215162243#0 215162243#1 26119900#0 26119900#1 26119880 210073259 233055818 95841157 434860177#0 434860177#1 156211618#0 156211618#1 156211618#2 167487363#0 167487363#1 167487363#2 36748084#0 36748084#1 36748084#2 482296561 482296560#0 482296560#1 212706762#0 212706762#1 207634492 482291295 482291787 482291294 167487372#0 167487372#1 167487372#2 167487370 725917413 725917412 725917115 725917117 128245298#0 128245298#1 128245297 608418577 608418580#0 608418580#1 608418576 189908446 219527968#0 219527968#1 219527968#2 483715766#0 483715766#1 483715766#2 483715766#3 483715766#4 608418840#0 608418840#1 453494265#1 453494265#2 453494265#3 209442097#0 209442097#1 13262695#0 13262695#1 13262695#2 13262695#3 13262770 212711376 30912916 447104330#0 447104330#1 12319876#0 12319876#1 108390767 219527971 219527972 219527973 219527966 479127837 479127838 95791550 479127835 398030860 95791537 453763721"/>
	<route id="sroute12" edges="367461723 4259344 367461725 345566832 345566832.163 345566831 478886777 478886775 478886776 478886774 478886773 478886772 478886771 29036508 480146192 480146191 480148052 35006698"/>
	<route id="sroute13" edges="-262474849#1 -262474849#0 252518642#0 252518642#1 252518644#0 252518644#1 252518644#2 13802005 259888928#0 259888928#1 259888928#2 259888928#3 14326493#0 14326493#1 14326493#2 14326493#3 14326493#4 211436103#0 211436103#1 697598025 697598026 14326464#0 14326464#1 14326464#2 14326464#3 14326464#4 14326464#5 14326464#6 14326464#7 14326558#0 14326558#1 14326558#2 14326558#3 14326558#4 14326558#5 608420973 448850568#0 448850568#1 210831460#0 210831460#1 715176794 307804461 715176795#0 715176795#1 -349620089 -349620090#4 -349620090#3 -349620090#2 -349620090#1 -349620090#0 -30417989#1 -30417989#0 -35171965#6 -35171965#5 -35171965#4 -35171965#3 -35171965#2 -35171965#1 -35171965#0 -211641909#1 -211641909#0 -211641911 -553528125 -482327709#5 -482327709#4 -482327709#3 -482327709#2 -482327709#1 -482327709#0 14327318#0 14327318#1 14327318#2 14327318#3 173072170 173072164"/>
	<route id="sroute14" edges="14328446#8 14328446#9 14328446#10 14328446#11 14328446#12 14328446#13 14328446#14 14328446#15 112465238#0 112465238#1 112465238#2 385795770#0 385795770#1 206720846#0 206720846#1 206720846#2 206720846#3 206720846#4 206720846#5 206720846#6 206720846#7 221905592#0 221905592#1 14327522#3 14327522#4 14327522#5 14327522#6 8367160 252527740#0 252527740#1 252527740#2 252527740#3 453762039#0 453762039#1 453762039#2 453762039#3 453762039#4 453762039#5 453762039#6 453762039#7 453762039#8 27292882#0 27292882#1 27292882#2 27292882#3 27292882#4 675897037#0 675897037#1 -482331424#5 -482331424#4 -482331424#3 -482331424#2 -482331424#1 -482331424#0 -252543837 -434879925#4 -434879925#3 -434879925#2 -434879925#1 -434879925#0"/>
	<route id="sroute15" edges="460839284 35539786#0 35539786#1 447313060 63202748 447313061 63202744 13703057 13703054 479165875 453955769 479181126 479127855 479127854 106441015 398030859 398035550 398030858 479127828 105482346 479187305 430528809 479187304 453274475 35047583 35047585 479187301#0 479187301#1 35044065 35044064 479192144 479192143 95841134 95841156 37113029 480083544 13797951#0 13797951#1 13798768 13798716#1 13798716#2 -256605510"/>
	<route id="sroute16" edges="34774629#0 34774629#1 34774629#2 34774629#3 34798406 241364281 13798089 448858673 13798541 13798105 241364287#0 241364287#1 480140406 478886779 478882411 478886778 345566829 345566831 478886777 478886775 478886776 478886774 478886773 478886772 478886771 29036508 480146192 480146191 480148052 35006698"/>
	<route id="sroute17" edges="480148041 34711126 480148058 478886770 478886769 478886767 478886768 480149866 35006697 478882419 480142667 4259343 367461722"/>
	<route id="sroute18" edges="367461723 4259345 478882416 478882415 478882417 478882414 478882413 29036509 479365566 479365567 479365565 479365568 13797785 37113031 479192142 95841138 37113028 479192141 479192140 35044067 479192139 35044066 479192138 479187303 479192145 35047582 35047581 479127849 398030856 479127848 398030863 479183661 4256513 95791537 453763721"/>
	<route id="sroute19" edges="106586101#0 106586101#1 479187303 479192145 35047582 35047581 479127849 398030856 479127848 398030863 479183661 4256513 95791537 453763721"/>
	<route id="sroute20" edges="480148041 34711126 480148058 478886770 478886769 478886767 478886768 480149866 35006697 478882419 480142667 478882418 478882416 478882415 478882417 478882414 478882413 29036509 479365566 479365567 479365565 479365568 13797785 37113031 479192142 95841138 37113028 479192141 479192140 35044067 479192139 35044066 479192138 479187303 479192145 35047582 35047581 479127849 398030856 479127848 398030857 479127847 398030861 105482347 479127846 106441012 479127845 479127844 479181462 479181124 479178724 479181127 479178722 479178723 597084097 597084096 453955770 13703046 13703039 63202741 479165071 479165072 415566516 447313531 447313062"/>
	<route id="sroute21" edges="100 101 106440984 479127826 479127827 95791510 95791517 223288614 453764134#0 453764134#1 386578584#3 446557315#0 446557315#1 446557317#0 446557317#1 446557317#2 -482122879#2 -482122879#1 -482122879#0 482122880 41595761#0 41595761#1 452158599#0 452158599#1 -452158600#3 -452158600#2 -589301571 135411081 110801275 110801271#0 110801271#1 110801271#2 110801271#3 110801271#4"/>
	<route id="sroute22" edges="110801277#0 110801277#1 110801277#2 110801268 135411080#0 135411080#1 189908445#0 189908445#1 224646233#0 224646233#1 224646233#2 224646233#3 224646233#4 224646233#5 224646233#6 224646233#7 250949165#0 250949165#1 250949165#3 250949165#4 705491646#0 705491646#1 705491648 608418574#0 608418574#1 608418574#2 608418574#3 608418574#4 608418574#5 608418574#6 -128245297 -128245298#1 -128245298#0 -725917117 -725917115 -725917412 -725917413 -167487370 167487371#0 167487371#1 167487371#2 -482291294 -482291787 -482291295 -207634492 -212706762#1 -212706762#0 -482296560#1 -482296560#0 -482296561 -36748084#2 -36748084#1 -36748084#0 167487364 448860910#0 448860910#1 -156211618#2 -156211618#1 -156211618#0 -434860177#1 -434860177#0 -386286210 13801323 13801868#0 13801868#1 258853581#0 258853581#1 258853581#2 258853581#3 258853581#4 13802005 259888928#0 259888928#1 259888928#2 259888928#3 14326493#0 14326493#1 14326493#2 14326493#3 14326493#4 211436103#0 211436103#1 697598025 697598026 14326464#0 14326464#1 14326464#2 14326464#3 14326464#4 14326464#5 14326464#6 14326464#7 14326558#0 14326558#1 14326558#2 14326558#3 14326558#4 14326558#5 608420973 448850568#0 448850568#1 210328149#0 210328149#1 448850570 715176796#0 715176796#1 715176796#2 715176796#3 715176796#4 715176796#5 715176796#6 715176796#7 715176796#8 715176796#9 220232893#0 220232893#1 220232893#2 220232893#3 220232893#4 239593895#0 239593895#1 239593895#2 434879921#0 434879921#1 434879921#2 385795770#0 385795770#1 206720846#0 206720846#1 206720846#2 206720846#3 206720846#4 206720846#5 206720846#6 206720846#7 221905592#0 221905592#1 221905592#2 14328357#0 14328357#1 14328357#2 14328357#3 14328357#4 14328357#5 391839893 391839883 391839901#0 391839901#1 391839901#2 391839901#3 549249237#0 549249237#1 391839909#0 391839909#1 448867778"/>
	<route id="sroute23" edges="128823187#3 128823189#0 59525257#0 595164143#2 595164143#3 595164143#3.65 595164143#4 595164143#4.87 8367073 34683151#0 34683151#1 34683151#2 34683151#3 34683151#4 34627575#0 34627575#1 34627575#2 59525260#0 59525260#1 59525260#2 59525260#3 -8367070#3 -8367070#2 -8367070#1 -8367070#0 128825641#1 498298756 643196090 34607518#0 34607518#1 60175223#2 229194693#0 229194693#1 8366893#0 8366896#0 8366896#1 8366896#2 190128490 197464423 215194131#0 215194131#1 39668434#0 39668434#1 14326464#7 14326558#0 14326558#1 14326558#2 304682487#0 304682487#1 304682487#2 304682487#3 304682487#4 643548702 216891255#0 216891255#1 216891255#2 216891255#3 349620091 643548708 216891254#0 216891254#1 216891254#2 217344337#0 217344337#1 217344337#2 217344337#3 217344337#4 217344337#5 419935503 -13278020#8 -13278020#7 -13278020#6 -13278020#5 -13278020#4 -13278020#3 -13278020#2 -13278020#1 -13278020#0 -96151239#9 -96151239#8 -96151239#7 -96151239#6 -96151239#5"/>
	<route id="sroute24" edges="256605510 13798688#0 13797903#0 13797903#1 480083542 479192142 95841138 37113028 479192141 479192140 35044067 479192139 35044066 479192138 479187303 479192145 35047582 35047581 479127849 398030856 479127848 398030863 479183661 4256513 95791537 453763721"/>
	<route id="sroute25" edges="367461723 4259345 478882416 478882415 478882417 478882414 478882413 29036509 479365566 479365567 479365565 480083543 13797865#0 13797865#1 13798803 13798688#1 13798688#2 13798697 448867800 -228569586 -617765086#1 -617765086#0 -448568808#8 -448568808#7 -448568808#6 -448568808#5 -448568808#4 -448568808#3 -448568808#2 -448568808#1 -448568808#0 -228569587#1 -228569587#0 -30912902#1 -30912902#0 39654094#1 39654094#2 -193149514 106572534 -104179543#1 -104179543#0 212710686 212710704 -212710688 30912908 13262695#0 13262695#1 13262695#2 13262695#3 13262770 212711376 211561641 13262869 167487356#0 167487356#1 167487356#2 167487356#3 167487356#4 167487356#5 546881517#0 546881517#1 224647868#4 224647868#5 546881512 189908447 327439257 589296694 135411081 110801275 110801271#0 110801271#1 110801271#2 110801271#3"/>
	<route id="sroute26" edges="367461723 4259345 478882416 478882415 478882417 478882414 478882413 29036509 479365566 479365567 479365565 479365568 13797785 37113031 479192142 95841138 37113028 479192141 479192140 35044067 479192139 35044066 479192138 479187303 479192145 35047582 35047581 479127849 398030856 479127848 398030857 479127847 398030861 105482347 479127846 106441012 479127845 479127844 479181462 479181124 479178724 479181127 479178722 479178723 597084097 597084096 453955770 13703046 13703039 63202741 479165071 479165072 415566516 447313531 447313062"/>
	<route id="sroute27" edges="49982592 14327274 211924702#1 14327260#0 14327260#1 14327260#2 14327505#2 14327505#3 366594500#0 366594500#1 261980637#0 261980637#1 261980637#2 261980637#3 261980637#4 261980637#5 321496804#0 321496804#1 321496804#2 321496804#3 -31721081#4 -31721081#3 -31721081#2 -31721081#1 -31721081#0"/>
	<route id="sroute28" edges="480148041 34711126 480148058 478886770 27292207#0 27292207#1 480146199 480146196 480146195 29036519#0 29036519#1 549454264#0 549454264#1"/>
	<route id="sroute29" edges="480148041 34711126 480148058 478886770 478886769 478886767 478886768 480149866 35006697 478882419 480142667 478882418 478882416 478882415 478882417 478882414 478882413 29036509 479365566 479365567 479365565 480083543 13797865#0 13797865#1 13798803 13798688#1 13798688#2 13798697 448867800 -228569586 -617765086#1 -617765086#0 -448568808#8 -448568808#7 -448568808#6 -448568808#5 -448568808#4 -448568808#3 -448568808#2 -448568808#1 -448568808#0 -228569587#1 -228569587#0 -30912902#1 -30912902#0 -39654094#0 -13714843#3 -13714843#2 -13714843#1 -13714843#0"/>