<?xml version="1.0" encoding="UTF-8"?>

<!-- generated on 10/11/18 15:18:45 by Eclipse SUMO duarouter Version 1.0.1
<configuration xmlns:xsi="http://www.w3.org/2001/XMLSchema-instance" xsi:noNamespaceSchemaLocation="http://sumo.dlr.de/xsd/duarouterConfiguration.xsd">

    <input>
        <net-file value="1.net.xml"/>
        <route-files value="trips.trips.xml"/>
    </input>

    <output>
        <output-file value="angeja_estarreja2.rou.xml"/>
        <alternatives-output value="angeja_estarreja.rou.alt.xml"/>
    </output>

    <time>
        <begin value="0"/>
        <end value="50.0"/>
    </time>

    <report>
        <no-warnings value="true"/>
        <ignore-errors value="true"/>
        <no-step-log value="true"/>
    </report>

</configuration>
-->

<routes>
   <vType id="Static" accel="2.5" decel="4.0" apparentDecel="3.8" emergencyDecel="4.0" sigma="0.7" length="4.6" tau="1.1" minGap="3.3" width="1.9" maxSpeed="33.33" speedFactor="0.95" speedDev="0.2" vClass="passenger"/>
   <vType id="EcoRoutingSN" accel="2.5" decel="4.0" apparentDecel="3.8" emergencyDecel="4.0" sigma="0.7" length="4.6" tau="1.1" minGap="3.3" width="1.9" maxSpeed="33.33" speedFactor="0.95" speedDev="0.2" vClass="passenger"/>
  
   <route id="Path1" color="1,1,0" edges="100 251259917 77477329#3 77477329#4 77477329#5 77477323 77477317 549319305 77477334#2 77477353 77477395 549319302 77477389#2 77477376 77477324#0 249443656#0 249443656#3 249443656#3.432 249270205#0 249270205#0.177 160289846#0 249236831 249236832 248927011 77477369#4 77477398 77477402 248722725 248722721#6 248722721#0 248722719 549517179#0 621945350 248722722#0 248722722#1 621945352 621945353 561990751#1 561990751#2 354388229 132017141#3 132017141#4 132017141#5 132017149 462392866 462392867 311202397 188949094#0 188949094#1"/>
   <route id="Path2" color="1,1,0" edges="100 251259917 77477329#3 77477329#4 77477329#5 77477323 77477317 549319305 77477334#2 77477353 77477395 549319302 77477389#2 77477376 77477324#0 249443656#0 249443656#3 249443656#3.432 249270205#0 249270205#0.177 160289846#0 249236831 249236832 248927011 77477369#4 77477398 77477402 248722725 248722721#6 248722721#0 248722719 549517179#0 621945350 248722722#0 248722722#1 621945352 621945353 561990751#1 561990751#2 354388229 132017141#3 132017141#4 132017141#5 132017149 462392866 462392867 311202397 188949094#0 188949094#1"/>
   <route id="Path3" color="1,1,0" edges="27 28 29 311202398#0 311202398#1 132017141#1 354388232 18 19 19a 20 21 22 23 24 25 26 248722721#2 248722721#3 248722721#4 gneE1 5 248927010 77477369#1 77477369#2 gneE2 6 6a 7 8 9 11 12 13 14 15 77477389#4 77477389#0 77477359 16 549319303 77477334#4 77477334#0 77477384 17 251259919 77477329#7 77477329#0 77477329#1 77477331 77477309"/>
   <route id="Path4" color="1,1,0" edges="27 28 29 311202398#0 311202398#1 132017141#1 354388232 18 19 19a 20 21 22 23 24 25 26 248722721#2 248722721#3 248722721#4 gneE1 5 248927010 77477369#1 77477369#2 gneE2 6 6a 7 8 9 11 12 13 14 15 77477389#4 77477389#0 77477359 16 549319303 77477334#4 77477334#0 77477384 17 251259919 77477329#7 77477329#0 77477329#1 77477331 77477309"/>
   <route id="Path5" color="1,1,0" edges="100 251259917 77477329#3 77477329#4 77477329#5 77477329#6 77477329#7 77477351 142362611 24328854#1 96183767 95710171#3 95710174 95710174.113 158879917 319611365 319611368 319611376 185675533 319615438 158888049 158888040 354388269 354388286 354388274#0 354388274#1 354388253 158888013 354388205 354388194 462392854 354388197 354388212 598399304 462392864 462392865 354388217 96065608 96065606 132017141#5 132017149 462392866 462392867 311202397 188949094#0 188949094#1"/>
   <route id="Path6" color="1,1,0" edges="27 28 30 354388214 354388200 354388209 354388196 389783912 389783905 24443869 95223244 95223248 354388265 354388254 462392853 354388235 354388273#0 319615445 354388279 319615440 319615444 185675534 319611363 319611367 34634650 319611361#1 319611361#1.82 95710171#1 96183778 24328854#3 24328854#4 24328854#5 24347613 142362617 77477329#1 77477331 77477309"/>
   <route id="Path7" color="1,1,0" edges="27 28 30 354388214 354388200 24330636 135657123 135657120 67446155 354388221 158888001 527319204 527319206 245328442 152051288 527319195 67446110 404935451 24328854#5 24347613 142362617 77477329#1 77477331 77477309"/>
   <route id="Path8" color="1,1,0" edges="100 251259917 77477329#3 77477329#4 77477329#5 77477329#6 77477329#7 77477351 142362611 24328854#1 24328854#2 24328854#3 404935462 67446185 142362639 598399309 142362576 152051296 598399308 598399307 527319205 598399306 598399305 158888002 354388220 462392856 354388224 598399304 462392864 462392865 354388217 96065608 96065606 132017141#5 132017149 462392866 462392867 311202397 188949094#0 188949094#1"/>
   <route id="Path9" color="1,1,0" edges="319615443 319615442 95223237 319615440 319615444 185675534 319611363 319611367 319611372 319611370"/>
   <route id="Path10" color="1,1,0" edges="319611362 294492782 319611365 319611368 319611376 185675533 319615438 319615439 319615436"/>
   <route id="Path11" color="1,1,0" edges="462392872 462392868 96039763 96039766 354388214 354388200 354388209 354388196 389783912 389783905 389783908"/>
   <route id="Path12" color="1,1,0" edges="389783911.154 354388205 354388194 462392854 354388197 354388212 598399304 462392864 462392865 354388217 96065608 462392870 462392869"/>
   <route id="Path13" color="1,1,0" edges="1 251259918 77477329#5 77477329#6 77477329#7 77477351 142362611 24328854#1 96183767 95710171#3 95710174 95710174.113 158879913 319611370"/>
   <route id="Path14" color="1,1,0" edges="1 251259918 77477329#5 77477329#6 77477329#7 77477351 142362611 24328854#1 96183767 95710171#3 95710174 95710174.113 158879917 319611365 319611368 319611376 185675533 319615438 319615439 319615436"/>
   <route id="Path15" color="1,1,0" edges="1 251259918 77477329#5 77477329#6 77477329#7 77477351 142362611 24328854#1 24328854#2 24328854#3 404935462 67446167 245327988#1"/>
   <route id="Path16" color="1,1,0" edges="1 251259918 77477329#5 77477329#6 77477329#7 77477329#0 77477329#1 77477331 77477309"/>
   <route id="Path17" color="1,1,0" edges="1 251259918 77477329#5 77477323 77477317 549319305 77477334#2 77477353 77477395 549319302 77477389#2 77477376 77477324#0 249443656#0 249443656#3 249443656#3.432 249270205#0 249270205#0.177 160289846#0 249236831 249236832 248927011 77477369#4 77477398 77477402 248722725 248722721#6 248722721#0 248722719 549517179#0 621945350 248722722#0 248722722#1 621945352 621945353 561990751#1 561990751#2 354388229 132017141#3 132017141#4 132017141#5 132017149 462392866 462392867 311202397 188949094#0 188949094#1"/>
   <route id="Path18" color="1,1,0" edges="1 251259918 77477329#5 77477323 77477317 549319305 77477334#2 77477353 77477395 549319302 77477389#2 77477376 77477324#0 249443656#0 249443656#3 249443656#3.432 249270205#0 249270205#0.177 160289846#0 249236831 249236832 248927011 77477369#4 77477398 77477402 248722725 248722721#6 248722721#0 248722721#1 248722721#2 549802402 -248846659#1"/>
   <route id="Path19" color="1,1,0" edges="100 251259917 77477329#3 142362623 2"/>
   <route id="Path20" color="1,1,0" edges="516175821 527319202 142362634 142362642 404935451 24328854#5 24347613 142362617 77477329#1 77477329#2 77477329#3 142362623 2"/>
   <route id="Path21" color="1,1,0" edges="516175821 527319202 245327987 598399309 142362576 152051296 598399308 598399307 527319205 598399306 598399305 158888002 354388220 462392856 354388224 598399304 462392864 462392865 354388217 96065608 462392870 462392869"/>
   <route id="Path22" color="1,1,0" edges="516175821 527319202 245327987 598399309 142362576 152051296 598399308 598399307 527319205 598399306 598399305 158888002 354388220 462392856 148050996 462392857 462392859 148051000 148051003 354388223 354388196 389783912 389783905 389783908"/>
   <route id="Path23" color="1,1,0" edges="27 28 30 354388214 354388200 354388209 354388196 389783912 389783905 389783908"/>
   <route id="Path24" color="1,1,0" edges="27 28 29 311202398#0 311202398#1 132017141#1 132017141#2 132017141#3 132017142 462392869"/>
   <route id="Path25" color="1,1,0" edges="27 28 30 354388214 354388200 24330636 135657123 135657120 67446155 354388221 158888001 527319204 527319206 245328442 152051288 527319195 142362585 245327988#1"/>
   <route id="Path26" color="1,1,0" edges="27 28 30 354388214 354388200 354388209 354388196 389783912 389783905 24443869 95223244 95223248 354388265 354388254 462392853 354388235 354388273#0 24443883 319615436"/>
   <route id="Path27" color="1,1,0" edges="27 28 30 354388214 354388200 354388209 354388196 389783912 389783905 24443869 95223244 95223248 354388265 354388254 462392853 354388235 354388273#0 319615445 354388279 319615440 319615444 185675534 319611363 319611367 319611372 319611370"/>
   <route id="Path28" color="1,1,0" edges="319611362 294492782 319611365 319611368 319611376 185675533 319615438 158888049 158888040 354388269 354388286 354388274#0 354388274#1 354388253 24443872 95223238 95223234"/>
   <route id="Path29" color="1,1,0" edges="319611362 294492782 319611365 319611368 319611376 185675533 319615438 158888049 158888040 354388275 354388234 354388274#0 354388274#1 354388253 24443872 95223238 95223234"/>
   <route id="Path30" color="1,1,0" edges="319611362 294492782 319611365 319611368 319611376 185675533 319615438 158888049 158888040 354388269 354388286 354388274#0 354388274#1 354388253 158888013 354388205 354388194 462392854 354388197 354388212 598399304 462392864 462392865 354388217 96065608 462392870 462392869"/>
   <route id="Path31" color="1,1,0" edges="319611362 294492782 319611365 319611368 319611376 185675533 319615438 158888049 158888040 354388275 354388234 354388274#0 354388274#1 354388253 158888013 354388205 354388194 462392854 354388197 354388212 598399304 462392864 462392865 354388217 96065608 462392870 462392869"/>
   <route id="Path32" color="1,1,0" edges="319615443 319615442 24443886 158888040 354388269 354388286 354388274#0 354388274#1 354388253 158888013 354388205 354388194 462392854 354388197 354388212 598399304 462392864 462392865 354388217 96065608 462392870 462392869"/>
   <route id="Path33" color="1,1,0" edges="319611362 294492782 319611365 319611368 319611376 185675533 319615438 158888049 158888040 354388269 354388286 354388274#0 354388274#1 354388253 158888013 354388205 354388194 462392854 354388197 354388212 598399304 462392864 462392865 354388217 96065608 96065606 132017141#5 132017149 462392866 462392867 311202397 188949094#0 188949094#1"/>
   <route id="Path34" color="1,1,0" edges="319611362 294492782 319611365 319611368 319611376 185675533 319615438 158888049 158888040 354388275 354388234 354388274#0 354388274#1 354388253 158888013 354388205 354388194 462392854 354388197 354388212 598399304 462392864 462392865 354388217 96065608 96065606 132017141#5 132017149 462392866 462392867 311202397 188949094#0 188949094#1"/>
   <route id="Path35" color="1,1,0" edges="27 28 29 311202398#0 311202398#1 132017141#1 354388232 18 19 19a 20 21 22 23 24 25 26 248722721#2 549802402 -248846659#1"/>
   <route id="Path36" color="1,1,0" edges="248846659#1.206 248722726  248722721#4 248722721#5 248722721#6 248722721#0 248722719 549517179#0 621945350 248722722#0 248722722#1 621945352 621945353 561990751#1 561990751#2 354388229 132017141#3 132017141#4 132017141#5 132017149 462392866 462392867 311202397 188949094#0 188949094#1"/>
   <route id="Path37" color="1,1,0" edges="248846659#1.206 248722726 248722721#4 gneE1 5 248927010 77477369#1 77477369#2 gneE2 6 6a 7 8 9 11 12 13 14 15 77477389#4 77477389#0 77477359 16 549319303 77477334#4 77477334#0 77477384 17 251259919 77477329#7 77477329#0 77477329#1 77477331 77477309"/>
   <route id="Path38" color="1,1,0" edges="462392872 132017151 188949094#1"/>
   <route id="Path39" color="1,1,0" edges="516175821 527319202 245327987 598399309 142362576 152051296 598399308 598399307 527319205 598399306 598399305 158888002 354388220 462392856 354388224 598399304 462392864 462392865 354388217 96065608 96065606 132017141#5 132017149 462392866 462392867 311202397 188949094#0"/>
   <route id="Path40" color="1,1,0" edges="462392872 462392868 96039763 96039766 354388214 354388200 24330636 135657123 135657120 67446155 354388221 158888001 527319204 527319206 245328442 152051288 527319195 142362585 245327988#1"/>
   <route id="Path41" color="1,1,0" edges="462392872 462392868 96039763 96039766 354388214 354388200 354388209 354388196 389783912 389783905 24443869 95223244 95223248 354388265 354388254 462392853 354388235 354388273#0 319615445 354388279 319615440 319615444 185675534 319611363 319611367 319611372 319611370"/>
   <route id="Path42" color="1,1,0" edges="462392872 462392868 96039763 96039766 354388214 354388200 354388209 354388196 389783912 389783905 24443869 95223244 95223248 354388265 354388254 462392853 354388235 354388273#0 24443883 319615436"/>
   <route id="Path43" color="1,1,0" edges="24443879.82 354388254 462392853 354388235 354388273#0 24443883 319615436"/>
   <route id="Path44" color="1,1,0" edges="24443879.82 354388254 462392853 354388235 354388273#0 319615445 354388279 319615440 319615444 185675534 319611363 319611367 319611372 319611370"/>
   <route id="Path45" color="1,1,0" edges="389783911.154 354388205 354388194 462392854 354388197 67446165 67446155 354388221 158888001 527319204 527319206 245328442 152051288 527319195 142362585 245327988#1"/>																															
    																																																															
   <vehicle id="0" type="Static" route="Path22" depart="1" color="1,0,0"/>																															
   <vehicle id="1" type="Static" route="Path40" depart="16" color="1,0,0"/>																															
   <vehicle id="2" type="Static" route="Path21" depart="22" color="1,0,0"/>																															
   <vehicle id="3" type="Static" route="Path41" depart="29" color="1,0,0"/>																															
   <vehicle id="4" type="Static" route="Path1" depart="31" color="1,0,0"/>																															
   <vehicle id="5" type="Static" route="Path10" depart="31" color="1,0,0"/>																															
   <vehicle id="6" type="Static" route="Path12" depart="41" color="1,0,0"/>																															
   <vehicle id="7" type="Static" route="Path12" depart="42" color="1,0,0"/>																															
   <vehicle id="8" type="Static" route="Path9" depart="45" color="1,0,0"/>																															
   <vehicle id="9" type="Static" route="Path10" depart="52" color="1,0,0"/>																															
   <vehicle id="10" type="Static" route="Path3" depart="53" color="1,0,0"/>																											
   <vehicle id="11" type="Static" route="Path11" depart="55" color="1,0,0"/>																															
   <vehicle id="12" type="Static" route="Path42" depart="58" color="1,0,0"/>																															
   <vehicle id="13" type="Static" route="Path21" depart="59" color="1,0,0"/>																															
   <vehicle id="14" type="Static" route="Path29" depart="62" color="1,0,0"/>																															
   <vehicle id="15" type="Static" route="Path40" depart="68" color="1,0,0"/>																															
   <vehicle id="16" type="Static" route="Path21" depart="69" color="1,0,0"/>																															
   <vehicle id="17" type="Static" route="Path10" depart="72" color="1,0,0"/>																															
   <vehicle id="18" type="Static" route="Path32" depart="77" color="1,0,0"/>																															
   <vehicle id="19" type="Static" route="Path37" depart="80" color="1,0,0"/>																															
   <vehicle id="20" type="Static" route="Path36" depart="86" color="1,0,0"/>																															
   <vehicle id="21" type="Static" route="Path16" depart="88" color="1,0,0"/>																															
   <vehicle id="22" type="Static" route="Path35" depart="92" color="1,0,0"/>																															
   <vehicle id="23" type="Static" route="Path19" depart="94" color="1,0,0"/>																															
   <vehicle id="24" type="Static" route="Path9" depart="103" color="1,0,0"/>																															
   <vehicle id="25" type="Static" route="Path1" depart="116" color="1,0,0"/>																															
   <vehicle id="26" type="Static" route="Path11" depart="125" color="1,0,0"/>																															
   <vehicle id="27" type="Static" route="Path21" depart="134" color="1,0,0"/>																															
   <vehicle id="28" type="Static" route="Path32" depart="136" color="1,0,0"/>																															
   <vehicle id="29" type="Static" route="Path40" depart="138" color="1,0,0"/>																															
   <vehicle id="30" type="Static" route="Path37" depart="141" color="1,0,0"/>																															
   <vehicle id="31" type="Static" route="Path15" depart="147" color="1,0,0"/>																															
   <vehicle id="32" type="Static" route="Path27" depart="147" color="1,0,0"/>																															
   <vehicle id="33" type="Static" route="Path40" depart="147" color="1,0,0"/>																															
   <vehicle id="34" type="Static" route="Path11" depart="151" color="1,0,0"/>																															
   <vehicle id="35" type="Static" route="Path9" depart="152" color="1,0,0"/>																															
   <vehicle id="36" type="Static" route="Path21" depart="163" color="1,0,0"/>																															
   <vehicle id="37" type="Static" route="Path37" depart="165" color="1,0,0"/>																															
   <vehicle id="38" type="Static" route="Path36" depart="170" color="1,0,0"/>																															
   <vehicle id="39" type="Static" route="Path21" depart="174" color="1,0,0"/>																															
   <vehicle id="40" type="Static" route="Path39" depart="179" color="1,0,0"/>																															
   <vehicle id="41" type="Static" route="Path44" depart="179" color="1,0,0"/>																															
   <vehicle id="42" type="Static" route="Path9" depart="183" color="1,0,0"/>																															
   <vehicle id="43" type="Static" route="Path35" depart="191" color="1,0,0"/>																															
   <vehicle id="44" type="Static" route="Path25" depart="202" color="1,0,0"/>																															
   <vehicle id="45" type="Static" route="Path9" depart="215" color="1,0,0"/>																															
   <vehicle id="46" type="Static" route="Path40" depart="217" color="1,0,0"/>																															
   <vehicle id="47" type="Static" route="Path9" depart="226" color="1,0,0"/>																															
   <vehicle id="48" type="Static" route="Path12" depart="226" color="1,0,0"/>																															
   <vehicle id="49" type="Static" route="Path32" depart="237" color="1,0,0"/>																															
   <vehicle id="50" type="Static" route="Path23" depart="239" color="1,0,0"/>																															
   <vehicle id="51" type="Static" route="Path9" depart="249" color="1,0,0"/>																															
   <vehicle id="52" type="EcoRoutingSN" route="Path4" depart="254" color="0,1,0"/>																															
   <vehicle id="53" type="Static" route="Path10" depart="261" color="1,0,0"/>																															
   <vehicle id="54" type="Static" route="Path43" depart="264" color="1,0,0"/>																															
   <vehicle id="55" type="Static" route="Path10" depart="289" color="1,0,0"/>																															
   <vehicle id="56" type="Static" route="Path36" depart="307" color="1,0,0"/>																															
   <vehicle id="57" type="Static" route="Path10" depart="320" color="1,0,0"/>																															
   <vehicle id="58" type="Static" route="Path12" depart="321" color="1,0,0"/>																															
   <vehicle id="59" type="Static" route="Path41" depart="328" color="1,0,0"/>																															
   <vehicle id="60" type="Static" route="Path1" depart="333" color="1,0,0"/>																															
   <vehicle id="61" type="EcoRoutingSN" route="Path7" depart="333" color="1,0,1"/>																															
   <vehicle id="62" type="Static" route="Path10" depart="333" color="1,0,0"/>																															
   <vehicle id="63" type="Static" route="Path10" depart="339" color="1,0,0"/>																															
   <vehicle id="64" type="Static" route="Path9" depart="347" color="1,0,0"/>																															
   <vehicle id="65" type="Static" route="Path9" depart="376" color="1,0,0"/>																															
   <vehicle id="66" type="Static" route="Path9" depart="379" color="1,0,0"/>																															
   <vehicle id="67" type="Static" route="Path25" depart="388" color="1,0,0"/>																															
   <vehicle id="68" type="Static" route="Path10" depart="401" color="1,0,0"/>																															
   <vehicle id="69" type="Static" route="Path9" depart="402" color="1,0,0"/>																															
   <vehicle id="70" type="Static" route="Path26" depart="408" color="1,0,0"/>																															
   <vehicle id="71" type="Static" route="Path10" depart="423" color="1,0,0"/>																															
   <vehicle id="72" type="Static" route="Path23" depart="423" color="1,0,0"/>																															
   <vehicle id="73" type="Static" route="Path16" depart="435" color="1,0,0"/>																															
   <vehicle id="74" type="Static" route="Path8" depart="444" color="1,0,0"/>																															
   <vehicle id="75" type="Static" route="Path12" depart="450" color="1,0,0"/>																															
   <vehicle id="76" type="Static" route="Path1" depart="452" color="1,0,0"/>																															
   <vehicle id="77" type="Static" route="Path9" depart="455" color="1,0,0"/>																															
   <vehicle id="78" type="Static" route="Path10" depart="473" color="1,0,0"/>																															
   <vehicle id="79" type="Static" route="Path36" depart="477" color="1,0,0"/>																															
   <vehicle id="80" type="Static" route="Path10" depart="487" color="1,0,0"/>																															
   <vehicle id="81" type="Static" route="Path21" depart="505" color="1,0,0"/>																															
   <vehicle id="82" type="Static" route="Path30" depart="510" color="1,0,0"/>																															
   <vehicle id="83" type="Static" route="Path9" depart="514" color="1,0,0"/>																															
   <vehicle id="84" type="Static" route="Path9" depart="527" color="1,0,0"/>																															
   <vehicle id="85" type="Static" route="Path1" depart="535" color="1,0,0"/>																															
   <vehicle id="86" type="Static" route="Path24" depart="535" color="1,0,0"/>																															
   <vehicle id="87" type="Static" route="Path11" depart="537" color="1,0,0"/>																															
   <vehicle id="88" type="Static" route="Path20" depart="549" color="1,0,0"/>																															
   <vehicle id="89" type="Static" route="Path11" depart="550" color="1,0,0"/>																															
   <vehicle id="90" type="Static" route="Path11" depart="552" color="1,0,0"/>																															
   <vehicle id="91" type="Static" route="Path2" depart="555" color="1,0,0"/>																															
   <vehicle id="92" type="Static" route="Path22" depart="555" color="1,0,0"/>																															
   <vehicle id="93" type="Static" route="Path29" depart="556" color="1,0,0"/>																															
   <vehicle id="94" type="Static" route="Path20" depart="562" color="1,0,0"/>																															
   <vehicle id="95" type="Static" route="Path29" depart="564" color="1,0,0"/>																															
   <vehicle id="96" type="Static" route="Path9" depart="565" color="1,0,0"/>																															
   <vehicle id="97" type="Static" route="Path1" depart="568" color="1,0,0"/>																															
   <vehicle id="98" type="Static" route="Path10" depart="574" color="1,0,0"/>																															
   <vehicle id="99" type="Static" route="Path45" depart="578" color="1,0,0"/>																															
   <vehicle id="100" type="Static" route="Path21" depart="597" color="1,0,0"/>																															
   <vehicle id="101" type="Static" route="Path26" depart="597" color="1,0,0"/>																															
   <vehicle id="102" type="Static" route="Path10" depart="618" color="1,0,0"/>																															
   <vehicle id="103" type="Static" route="Path1" depart="620" color="1,0,0"/>																															
   <vehicle id="104" type="Static" route="Path10" depart="623" color="1,0,0"/>																															
   <vehicle id="105" type="Static" route="Path12" depart="627" color="1,0,0"/>																															
   <vehicle id="106" type="Static" route="Path30" depart="627" color="1,0,0"/>																															
   <vehicle id="107" type="Static" route="Path32" depart="628" color="1,0,0"/>																															
   <vehicle id="108" type="Static" route="Path29" depart="629" color="1,0,0"/>																															
   <vehicle id="109" type="Static" route="Path11" depart="630" color="1,0,0"/>																															
   <vehicle id="110" type="Static" route="Path30" depart="630" color="1,0,0"/>																															
   <vehicle id="111" type="Static" route="Path10" depart="636" color="1,0,0"/>																															
   <vehicle id="112" type="Static" route="Path45" depart="642" color="1,0,0"/>																															
   <vehicle id="113" type="Static" route="Path26" depart="663" color="1,0,0"/>																															
   <vehicle id="114" type="Static" route="Path21" depart="664" color="1,0,0"/>																															
   <vehicle id="115" type="Static" route="Path5" depart="666" color="1,0,0"/>																															
   <vehicle id="116" type="Static" route="Path9" depart="667" color="1,0,0"/>																															
   <vehicle id="117" type="Static" route="Path10" depart="669" color="1,0,0"/>																															
   <vehicle id="118" type="Static" route="Path11" depart="695" color="1,0,0"/>																															
   <vehicle id="119" type="Static" route="Path40" depart="696" color="1,0,0"/>																															
   <vehicle id="120" type="Static" route="Path12" depart="700" color="1,0,0"/>																															
   <vehicle id="121" type="Static" route="Path24" depart="701" color="1,0,0"/>																															
   <vehicle id="122" type="Static" route="Path9" depart="702" color="1,0,0"/>																															
   <vehicle id="123" type="Static" route="Path22" depart="703" color="1,0,0"/>																															
   <vehicle id="124" type="Static" route="Path36" depart="704" color="1,0,0"/>																															
   <vehicle id="125" type="Static" route="Path12" depart="707" color="1,0,0"/>																															
   <vehicle id="126" type="Static" route="Path31" depart="707" color="1,0,0"/>																															
   <vehicle id="127" type="Static" route="Path32" depart="707" color="1,0,0"/>																															
   <vehicle id="128" type="EcoRoutingSN" route="Path4" depart="720" color="0,1,0"/>																															
   <vehicle id="129" type="Static" route="Path12" depart="723" color="1,0,0"/>																															
   <vehicle id="130" type="Static" route="Path27" depart="734" color="1,0,0"/>																															
   <vehicle id="131" type="Static" route="Path19" depart="735" color="1,0,0"/>																															
   <vehicle id="132" type="Static" route="Path9" depart="739" color="1,0,0"/>																															
   <vehicle id="133" type="Static" route="Path10" depart="746" color="1,0,0"/>																															
   <vehicle id="134" type="Static" route="Path12" depart="760" color="1,0,0"/>																															
   <vehicle id="135" type="Static" route="Path11" depart="766" color="1,0,0"/>																															
   <vehicle id="136" type="Static" route="Path30" depart="772" color="1,0,0"/>																															
   <vehicle id="137" type="Static" route="Path9" depart="778" color="1,0,0"/>																															
   <vehicle id="138" type="Static" route="Path32" depart="808" color="1,0,0"/>																															
   <vehicle id="139" type="Static" route="Path40" depart="825" color="1,0,0"/>																															
   <vehicle id="140" type="Static" route="Path25" depart="831" color="1,0,0"/>																															
   <vehicle id="141" type="Static" route="Path3" depart="834" color="1,0,0"/>																															
   <vehicle id="142" type="Static" route="Path9" depart="845" color="1,0,0"/>																															
   <vehicle id="143" type="Static" route="Path32" depart="881" color="1,0,0"/>																															
   <vehicle id="144" type="Static" route="Path10" depart="898" color="1,0,0"/>																															
   <vehicle id="145" type="Static" route="Path38" depart="903" color="1,0,0"/>																															
   <vehicle id="146" type="Static" route="Path1" depart="912" color="1,0,0"/>																															
   <vehicle id="147" type="Static" route="Path43" depart="924" color="1,0,0"/>																															
   <vehicle id="148" type="Static" route="Path10" depart="932" color="1,0,0"/>																															