<?xml version="1.0" encoding="UTF-8"?>

<!-- generated on 10/31/18 12:45:26 by Eclipse SUMO netedit Version 1.0.1
<configuration xmlns:xsi="http://www.w3.org/2001/XMLSchema-instance" xsi:noNamespaceSchemaLocation="http://sumo.dlr.de/xsd/netconvertConfiguration.xsd">

    <input>
        <sumo-net-file value="C:\Users\paulo.fernandes\Desktop\Traffic%20Modeling%20SUMO\angeja_estarreja.net.xml"/>
    </input>

    <output>
        <output-file value="C:\Users\paulo.fernandes\Desktop\Traffic%20Modeling%20SUMO\angeja_estarreja.net.xml"/>
        <plain-output-prefix value=""/>
        <junctions.join-output value=""/>
    </output>

    <processing>
        <offset.disable-normalization value="true"/>
        <lefthand value="false"/>
    </processing>

    <junctions>
        <no-turnarounds value="true"/>
        <junctions.corner-detail value="5"/>
        <junctions.limit-turn-speed value="5.5"/>
        <rectangular-lane-cut value="false"/>
    </junctions>

    <pedestrian>
        <walkingareas value="false"/>
    </pedestrian>

</configuration>
-->

<net version="1.0" junctionCornerDetail="5" limitTurnSpeed="5.50" xmlns:xsi="http://www.w3.org/2001/XMLSchema-instance" xsi:noNamespaceSchemaLocation="http://sumo.dlr.de/xsd/net_file.xsd">

    <location netOffset="-536130.59,-4503435.15" convBoundary="32.47,131.14,4363.13,12070.86" origBoundary="-8.571790,40.680800,-8.518456,40.789715" projParameter="+proj=utm +zone=29 +ellps=WGS84 +datum=WGS84 +units=m +no_defs"/>

    <type id="highway.bridleway" priority="1" numLanes="1" speed="2.78" allow="pedestrian" oneway="1" width="2.00"/>
    <type id="highway.bus_guideway" priority="1" numLanes="1" speed="27.78" allow="bus" oneway="1"/>
    <type id="highway.cycleway" priority="1" numLanes="1" speed="8.33" allow="bicycle" oneway="0" width="1.00"/>
    <type id="highway.footway" priority="1" numLanes="1" speed="2.78" allow="pedestrian" oneway="1" width="2.00"/>
    <type id="highway.ford" priority="1" numLanes="1" speed="2.78" allow="army" oneway="0"/>
    <type id="highway.living_street" priority="3" numLanes="1" speed="2.78" disallow="tram rail_urban rail rail_electric ship" oneway="0"/>
    <type id="highway.motorway" priority="13" numLanes="2" speed="44.44" allow="private emergency authority army vip passenger hov taxi bus coach delivery truck trailer motorcycle evehicle custom1 custom2" oneway="1"/>
    <type id="highway.motorway_link" priority="12" numLanes="1" speed="22.22" allow="private emergency authority army vip passenger hov taxi bus coach delivery truck trailer motorcycle evehicle custom1 custom2" oneway="1"/>
    <type id="highway.path" priority="1" numLanes="1" speed="2.78" allow="bicycle pedestrian" oneway="1" width="2.00"/>
    <type id="highway.pedestrian" priority="1" numLanes="1" speed="2.78" allow="pedestrian" oneway="1" width="2.00"/>
    <type id="highway.primary" priority="9" numLanes="2" speed="27.78" disallow="tram rail_urban rail rail_electric ship" oneway="0"/>
    <type id="highway.primary_link" priority="8" numLanes="1" speed="22.22" disallow="tram rail_urban rail rail_electric ship" oneway="0"/>
    <type id="highway.raceway" priority="14" numLanes="2" speed="83.33" allow="vip" oneway="0"/>
    <type id="highway.residential" priority="4" numLanes="1" speed="13.89" disallow="tram rail_urban rail rail_electric ship" oneway="0"/>
    <type id="highway.secondary" priority="7" numLanes="2" speed="27.78" disallow="tram rail_urban rail rail_electric ship" oneway="0"/>
    <type id="highway.secondary_link" priority="6" numLanes="1" speed="22.22" disallow="tram rail_urban rail rail_electric ship" oneway="0"/>
    <type id="highway.service" priority="2" numLanes="1" speed="5.56" allow="delivery bicycle pedestrian" oneway="0"/>
    <type id="highway.stairs" priority="1" numLanes="1" speed="1.39" allow="pedestrian" oneway="1" width="2.00"/>
    <type id="highway.step" priority="1" numLanes="1" speed="1.39" allow="pedestrian" oneway="1" width="2.00"/>
    <type id="highway.steps" priority="1" numLanes="1" speed="1.39" allow="pedestrian" oneway="1" width="2.00"/>
    <type id="highway.tertiary" priority="6" numLanes="1" speed="22.22" disallow="tram rail_urban rail rail_electric ship" oneway="0"/>
    <type id="highway.tertiary_link" priority="5" numLanes="1" speed="22.22" disallow="tram rail_urban rail rail_electric ship" oneway="0"/>
    <type id="highway.track" priority="1" numLanes="1" speed="5.56" disallow="tram rail_urban rail rail_electric ship" oneway="0"/>
    <type id="highway.trunk" priority="11" numLanes="2" speed="27.78" disallow="tram rail_urban rail rail_electric bicycle pedestrian ship" oneway="0"/>
    <type id="highway.trunk_link" priority="10" numLanes="1" speed="22.22" disallow="tram rail_urban rail rail_electric bicycle pedestrian ship" oneway="0"/>
    <type id="highway.unclassified" priority="5" numLanes="1" speed="13.89" disallow="tram rail_urban rail rail_electric ship" oneway="0"/>
    <type id="highway.unsurfaced" priority="1" numLanes="1" speed="8.33" disallow="tram rail_urban rail rail_electric ship" oneway="0"/>
    <type id="railway.light_rail" priority="15" numLanes="1" speed="27.78" allow="rail_urban" oneway="1"/>
    <type id="railway.preserved" priority="15" numLanes="1" speed="27.78" allow="rail" oneway="1"/>
    <type id="railway.rail" priority="15" numLanes="1" speed="83.33" allow="rail rail_electric" oneway="1"/>
    <type id="railway.subway" priority="15" numLanes="1" speed="27.78" allow="rail_urban" oneway="1"/>
    <type id="railway.tram" priority="15" numLanes="1" speed="13.89" allow="tram" oneway="1"/>

    <edge id=":10_0" function="internal">
        <lane id=":10_0_0" index="0" disallow="tram rail_urban rail rail_electric ship" speed="12.50" length="17.49" shape="1327.88,1194.75 1328.81,1198.23 1330.05,1201.75 1331.75,1205.85 1334.04,1211.09"/>
    </edge>
    <edge id=":10_1" function="internal">
        <lane id=":10_1_0" index="0" disallow="tram rail_urban rail rail_electric ship" speed="11.11" length="17.33" shape="1322.51,1198.17 1327.04,1200.80 1329.83,1203.19 1331.84,1206.30 1334.04,1211.09"/>
        <lane id=":10_1_1" index="1" disallow="tram rail_urban rail rail_electric ship" speed="11.11" length="17.33" shape="1320.05,1200.48 1324.34,1202.91 1327.04,1205.08 1329.01,1207.92 1331.11,1212.38"/>
    </edge>
    <edge id=":100_0" function="internal">
        <lane id=":100_0_0" index="0" allow="private emergency authority army vip passenger hov taxi bus coach delivery truck trailer motorcycle evehicle custom1 custom2" speed="23.61" length="29.13" shape="2381.15,10880.85 2377.20,10909.71"/>
    </edge>
    <edge id=":100_1" function="internal">
        <lane id=":100_1_0" index="0" allow="private emergency authority army vip passenger hov taxi bus coach delivery truck trailer motorcycle evehicle custom1 custom2" speed="30.56" length="29.56" shape="2377.99,10880.35 2373.82,10909.70"/>
        <lane id=":100_1_1" index="1" allow="private emergency authority army vip passenger hov taxi bus coach delivery truck trailer motorcycle evehicle custom1 custom2" speed="30.56" length="29.56" shape="2374.83,10879.85 2370.67,10909.11"/>
        <lane id=":100_1_2" index="2" allow="private emergency authority army vip passenger hov taxi bus coach delivery truck trailer motorcycle evehicle custom1 custom2" speed="30.56" length="29.56" shape="2371.67,10879.35 2367.53,10908.52"/>
    </edge>
    <edge id=":101_0" function="internal">
        <lane id=":101_0_0" index="0" allow="private emergency authority army vip passenger hov taxi bus coach delivery truck trailer motorcycle evehicle custom1 custom2" speed="33.33" length="8.17" shape="2361.23,10840.07 2361.39,10837.72 2361.11,10836.09 2360.80,10834.45 2360.87,10832.09"/>
        <lane id=":101_0_1" index="1" allow="private emergency authority army vip passenger hov taxi bus coach delivery truck trailer motorcycle evehicle custom1 custom2" speed="33.33" length="8.17" shape="2364.38,10840.63 2364.55,10838.24 2364.27,10836.59 2363.96,10834.92 2364.04,10832.52"/>
        <lane id=":101_0_2" index="2" allow="private emergency authority army vip passenger hov taxi bus coach delivery truck trailer motorcycle evehicle custom1 custom2" speed="33.33" length="8.17" shape="2367.53,10841.19 2367.71,10838.77 2367.43,10837.09 2367.13,10835.40 2367.21,10832.96"/>
    </edge>
    <edge id=":102_0" function="internal">
        <lane id=":102_0_0" index="0" allow="private emergency authority army vip passenger hov taxi bus coach delivery truck trailer motorcycle evehicle custom1 custom2" speed="33.33" length="8.10" shape="2401.85,10693.77 2402.01,10696.20 2402.48,10697.85 2402.91,10699.50 2402.95,10701.92"/>
        <lane id=":102_0_1" index="1" allow="private emergency authority army vip passenger hov taxi bus coach delivery truck trailer motorcycle evehicle custom1 custom2" speed="33.33" length="8.10" shape="2401.85,10693.77 2401.51,10696.14 2400.88,10697.71 2400.22,10699.27 2399.76,10701.64"/>
        <lane id=":102_0_2" index="2" allow="private emergency authority army vip passenger hov taxi bus coach delivery truck trailer motorcycle evehicle custom1 custom2" speed="33.33" length="8.10" shape="2398.66,10693.65 2398.32,10695.98 2397.69,10697.51 2397.02,10699.04 2396.57,10701.36"/>
        <lane id=":102_0_3" index="3" allow="private emergency authority army vip passenger hov taxi bus coach delivery truck trailer motorcycle evehicle custom1 custom2" speed="33.33" length="8.10" shape="2395.46,10693.53 2395.12,10695.81 2394.50,10697.31 2393.83,10698.81 2393.38,10701.08"/>
    </edge>
    <edge id=":103_0" function="internal">
        <lane id=":103_0_0" index="0" allow="private emergency authority army vip passenger hov taxi bus coach delivery truck trailer motorcycle evehicle custom1 custom2" speed="33.33" length="8.05" shape="2386.86,10639.52 2386.86,10637.20 2386.46,10635.61 2386.01,10634.02 2385.87,10631.69"/>
        <lane id=":103_0_1" index="1" allow="private emergency authority army vip passenger hov taxi bus coach delivery truck trailer motorcycle evehicle custom1 custom2" speed="33.33" length="8.05" shape="2390.04,10639.87 2390.05,10637.49 2389.65,10635.86 2389.20,10634.23 2389.06,10631.83"/>
    </edge>
    <edge id=":104_0" function="internal">
        <lane id=":104_0_0" index="0" allow="private emergency authority army vip passenger hov taxi bus coach delivery truck trailer motorcycle evehicle custom1 custom2" speed="33.33" length="8.09" shape="2402.91,10627.48 2402.96,10629.82 2403.40,10631.41 2403.87,10633.00 2404.03,10635.34"/>
        <lane id=":104_0_1" index="1" allow="private emergency authority army vip passenger hov taxi bus coach delivery truck trailer motorcycle evehicle custom1 custom2" speed="33.33" length="8.09" shape="2402.91,10627.48 2402.46,10629.81 2401.80,10631.35 2401.17,10632.89 2400.83,10635.22"/>
        <lane id=":104_0_2" index="2" allow="private emergency authority army vip passenger hov taxi bus coach delivery truck trailer motorcycle evehicle custom1 custom2" speed="33.33" length="8.09" shape="2399.72,10627.21 2399.27,10629.59 2398.60,10631.15 2397.98,10632.72 2397.64,10635.10"/>
    </edge>
    <edge id=":105_0" function="internal">
        <lane id=":105_0_0" index="0" allow="private emergency authority army vip passenger hov taxi bus coach delivery truck trailer motorcycle evehicle custom1 custom2" speed="33.33" length="0.22" shape="2400.02,9575.62 2400.12,9575.30"/>
        <lane id=":105_0_1" index="1" allow="private emergency authority army vip passenger hov taxi bus coach delivery truck trailer motorcycle evehicle custom1 custom2" speed="33.33" length="0.22" shape="2403.12,9576.42 2403.15,9576.31"/>
    </edge>
    <edge id=":106_0" function="internal">
        <lane id=":106_0_0" index="0" allow="private emergency authority army vip passenger hov taxi bus coach delivery truck trailer motorcycle evehicle custom1 custom2" speed="33.33" length="0.31" shape="2415.83,9579.69 2415.81,9579.73 2415.80,9579.76 2415.79,9579.79 2415.78,9579.84"/>
        <lane id=":106_0_1" index="1" allow="private emergency authority army vip passenger hov taxi bus coach delivery truck trailer motorcycle evehicle custom1 custom2" speed="33.33" length="0.31" shape="2412.79,9578.66 2412.75,9578.79 2412.72,9578.88 2412.70,9578.97 2412.67,9579.11"/>
    </edge>
    <edge id=":107_0" function="internal">
        <lane id=":107_0_0" index="0" allow="private emergency authority army vip passenger hov taxi bus coach delivery truck trailer motorcycle evehicle custom1 custom2" speed="33.33" length="8.17" shape="4166.70,1603.86 4166.66,1601.44 4166.27,1599.78 4165.90,1598.13 4165.94,1595.71"/>
        <lane id=":107_0_1" index="1" allow="private emergency authority army vip passenger hov taxi bus coach delivery truck trailer motorcycle evehicle custom1 custom2" speed="33.33" length="8.17" shape="4166.70,1603.86 4167.16,1601.50 4167.86,1599.97 4168.58,1598.44 4169.11,1596.09"/>
        <lane id=":107_0_2" index="2" allow="private emergency authority army vip passenger hov taxi bus coach delivery truck trailer motorcycle evehicle custom1 custom2" speed="33.33" length="8.17" shape="4169.88,1604.14 4170.34,1601.82 4171.04,1600.30 4171.76,1598.79 4172.29,1596.47"/>
    </edge>
    <edge id=":108_0" function="internal">
        <lane id=":108_0_0" index="0" allow="private emergency authority army vip passenger hov taxi bus coach delivery truck trailer motorcycle evehicle custom1 custom2" speed="23.61" length="12.03" shape="4190.04,1588.46 4189.25,1591.48 4188.04,1593.73 4186.85,1596.16 4186.10,1599.73"/>
    </edge>
    <edge id=":108_1" function="internal">
        <lane id=":108_1_0" index="0" allow="private emergency authority army vip passenger hov taxi bus coach delivery truck trailer motorcycle evehicle custom1 custom2" speed="30.56" length="12.90" shape="4186.06,1587.05 4185.33,1590.78 4184.41,1593.25 4183.52,1595.72 4182.91,1599.46"/>
        <lane id=":108_1_1" index="1" allow="private emergency authority army vip passenger hov taxi bus coach delivery truck trailer motorcycle evehicle custom1 custom2" speed="30.56" length="12.90" shape="4182.89,1586.68 4182.15,1590.43 4181.22,1592.92 4180.34,1595.42 4179.72,1599.19"/>
    </edge>
    <edge id=":109_0" function="internal">
        <lane id=":109_0_0" index="0" allow="private emergency authority army vip passenger hov taxi bus coach delivery truck trailer motorcycle evehicle custom1 custom2" speed="23.61" length="12.55" shape="4183.92,1445.83 4184.32,1441.95 4184.47,1439.11 4184.51,1436.50 4184.53,1433.31"/>
    </edge>
    <edge id=":109_1" function="internal">
        <lane id=":109_1_0" index="0" allow="private emergency authority army vip passenger hov taxi bus coach delivery truck trailer motorcycle evehicle custom1 custom2" speed="30.56" length="19.24" shape="4187.09,1446.21 4189.76,1427.02"/>
        <lane id=":109_1_1" index="1" allow="private emergency authority army vip passenger hov taxi bus coach delivery truck trailer motorcycle evehicle custom1 custom2" speed="30.56" length="19.24" shape="4190.27,1446.60 4192.89,1427.67"/>
    </edge>
    <edge id=":11_0" function="internal">
        <lane id=":11_0_0" index="0" disallow="tram rail_urban rail rail_electric ship" speed="12.50" length="18.25" shape="1335.37,1228.20 1333.83,1234.00 1332.68,1238.54 1331.87,1242.35 1331.38,1245.99"/>
    </edge>
    <edge id=":11_1" function="internal">
        <lane id=":11_1_0" index="0" disallow="tram rail_urban rail rail_electric ship" speed="11.11" length="17.80" shape="1335.37,1228.20 1333.89,1233.39 1332.30,1236.84 1329.80,1239.67 1325.59,1243.03"/>
        <lane id=":11_1_1" index="1" disallow="tram rail_urban rail rail_electric ship" speed="11.11" length="17.80" shape="1332.28,1227.39 1330.84,1232.23 1329.24,1235.40 1326.80,1238.00 1322.80,1241.13"/>
    </edge>
    <edge id=":110_0" function="internal">
        <lane id=":110_0_0" index="0" allow="private emergency authority army vip passenger hov taxi bus coach delivery truck trailer motorcycle evehicle custom1 custom2" speed="23.61" length="14.55" shape="4235.99,1303.22 4235.10,1307.75 4234.70,1311.21 4234.55,1314.28 4234.40,1317.65"/>
    </edge>
    <edge id=":110_1" function="internal">
        <lane id=":110_1_0" index="0" allow="private emergency authority army vip passenger hov taxi bus coach delivery truck trailer motorcycle evehicle custom1 custom2" speed="30.56" length="14.70" shape="4232.87,1302.50 4230.53,1317.04"/>
        <lane id=":110_1_1" index="1" allow="private emergency authority army vip passenger hov taxi bus coach delivery truck trailer motorcycle evehicle custom1 custom2" speed="30.56" length="14.70" shape="4229.75,1301.78 4227.43,1316.26"/>
    </edge>
    <edge id=":111_0" function="internal">
        <lane id=":111_0_0" index="0" allow="private emergency authority army vip passenger hov taxi bus coach delivery truck trailer motorcycle evehicle custom1 custom2" speed="33.33" length="8.17" shape="4278.86,1119.08 4278.45,1121.42 4278.56,1123.09 4278.69,1124.76 4278.34,1127.12"/>
        <lane id=":111_0_1" index="1" allow="private emergency authority army vip passenger hov taxi bus coach delivery truck trailer motorcycle evehicle custom1 custom2" speed="33.33" length="8.17" shape="4278.86,1119.08 4277.97,1121.30 4277.01,1122.69 4276.08,1124.09 4275.24,1126.33"/>
        <lane id=":111_0_2" index="2" allow="private emergency authority army vip passenger hov taxi bus coach delivery truck trailer motorcycle evehicle custom1 custom2" speed="33.33" length="8.17" shape="4275.78,1118.20 4274.88,1120.45 4273.92,1121.86 4272.98,1123.27 4272.14,1125.53"/>
    </edge>
    <edge id=":114_0" function="internal">
        <lane id=":114_0_0" index="0" allow="private emergency authority army vip passenger hov taxi bus coach delivery truck trailer motorcycle evehicle custom1 custom2" speed="23.61" length="14.20" shape="4302.01,968.43 4303.52,965.46 4304.88,962.79 4306.25,959.71 4307.83,955.50"/>
    </edge>
    <edge id=":114_1" function="internal">
        <lane id=":114_1_0" index="0" allow="private emergency authority army vip passenger hov taxi bus coach delivery truck trailer motorcycle evehicle custom1 custom2" speed="30.56" length="14.29" shape="4305.53,969.85 4310.85,956.55"/>
        <lane id=":114_1_1" index="1" allow="private emergency authority army vip passenger hov taxi bus coach delivery truck trailer motorcycle evehicle custom1 custom2" speed="30.56" length="14.29" shape="4308.58,970.82 4313.87,957.59"/>
    </edge>
    <edge id=":115_0" function="internal">
        <lane id=":115_0_0" index="0" allow="private emergency authority army vip passenger hov taxi bus coach delivery truck trailer motorcycle evehicle custom1 custom2" speed="15.28" length="8.35" shape="4096.65,1103.58 4097.29,1105.97 4097.82,1107.59 4098.51,1109.14 4099.65,1111.34"/>
    </edge>
    <edge id=":115_1" function="internal">
        <lane id=":115_1_0" index="0" allow="private emergency authority army vip passenger hov taxi bus coach delivery truck trailer motorcycle evehicle custom1 custom2" speed="16.67" length="9.35" shape="4096.65,1103.58 4096.84,1106.26 4096.22,1108.15 4095.60,1110.04 4095.79,1112.71"/>
        <lane id=":115_1_1" index="1" allow="private emergency authority army vip passenger hov taxi bus coach delivery truck trailer motorcycle evehicle custom1 custom2" speed="16.67" length="9.35" shape="4093.55,1104.39 4093.74,1107.07 4093.12,1108.96 4092.50,1110.85 4092.70,1113.53"/>
    </edge>
    <edge id=":116_0" function="internal">
        <lane id=":116_0_0" index="0" allow="private emergency authority army vip passenger hov taxi bus coach delivery truck trailer motorcycle evehicle custom1 custom2" speed="15.28" length="7.48" shape="4105.77,1163.19 4106.57,1165.21 4107.51,1166.43 4108.53,1167.61 4109.58,1169.55"/>
    </edge>
    <edge id=":117_0" function="internal">
        <lane id=":117_0_0" index="0" allow="private emergency authority army vip passenger hov taxi bus coach delivery truck trailer motorcycle evehicle custom1 custom2" speed="15.28" length="8.35" shape="4104.04,1186.06 4103.46,1183.66 4103.03,1182.02 4102.53,1180.40 4101.73,1178.05"/>
    </edge>
    <edge id=":117_1" function="internal">
        <lane id=":117_1_0" index="0" allow="private emergency authority army vip passenger hov taxi bus coach delivery truck trailer motorcycle evehicle custom1 custom2" speed="15.28" length="8.86" shape="4107.99,1185.26 4106.92,1182.86 4106.23,1181.19 4105.61,1179.50 4104.75,1177.01"/>
    </edge>
    <edge id=":118_0" function="internal">
        <lane id=":118_0_0" index="0" allow="private emergency authority army vip passenger hov taxi bus coach delivery truck trailer motorcycle evehicle custom1 custom2" speed="16.67" length="62.19" shape="4076.61,1104.94 4071.95,1094.92 4064.24,1080.73 4055.56,1064.92 4047.98,1050.03"/>
        <lane id=":118_0_1" index="1" allow="private emergency authority army vip passenger hov taxi bus coach delivery truck trailer motorcycle evehicle custom1 custom2" speed="16.67" length="62.19" shape="4079.63,1103.90 4074.96,1093.83 4067.20,1079.54 4058.48,1063.62 4050.88,1048.68"/>
        <lane id=":118_0_2" index="2" allow="private emergency authority army vip passenger hov taxi bus coach delivery truck trailer motorcycle evehicle custom1 custom2" speed="16.67" length="62.19" shape="4079.63,1103.90 4075.41,1093.62 4068.65,1078.86 4060.92,1062.48 4053.78,1047.32"/>
        <lane id=":118_0_3" index="3" allow="private emergency authority army vip passenger hov taxi bus coach delivery truck trailer motorcycle evehicle custom1 custom2" speed="16.67" length="62.19" shape="4079.63,1103.90 4075.86,1093.41 4070.10,1078.19 4063.37,1061.34 4056.68,1045.97"/>
    </edge>
    <edge id=":118_4" function="internal">
        <lane id=":118_4_0" index="0" allow="private emergency authority army vip passenger hov taxi bus coach delivery truck trailer motorcycle evehicle custom1 custom2" speed="16.67" length="62.07" shape="4079.63,1103.90 4060.21,1044.94"/>
    </edge>
    <edge id=":118_5" function="internal">
        <lane id=":118_5_0" index="0" allow="private emergency authority army vip passenger hov taxi bus coach delivery truck trailer motorcycle evehicle custom1 custom2" speed="16.67" length="61.46" shape="4079.63,1103.90 4063.47,1044.60"/>
    </edge>
    <edge id=":119_0" function="internal">
        <lane id=":119_0_0" index="0" allow="private emergency authority army vip passenger hov taxi bus coach delivery truck trailer motorcycle evehicle custom1 custom2" speed="16.67" length="8.80" shape="4064.72,993.69 4065.83,995.94 4067.29,997.15 4068.74,998.36 4069.84,1000.62"/>
        <lane id=":119_0_1" index="1" allow="private emergency authority army vip passenger hov taxi bus coach delivery truck trailer motorcycle evehicle custom1 custom2" speed="16.67" length="8.80" shape="4061.63,994.50 4062.74,996.75 4064.19,997.96 4065.64,999.17 4066.75,1001.43"/>
        <lane id=":119_0_2" index="2" allow="private emergency authority army vip passenger hov taxi bus coach delivery truck trailer motorcycle evehicle custom1 custom2" speed="16.67" length="8.80" shape="4058.53,995.31 4059.64,997.56 4061.09,998.77 4062.55,999.98 4063.65,1002.23"/>
        <lane id=":119_0_3" index="3" allow="private emergency authority army vip passenger hov taxi bus coach delivery truck trailer motorcycle evehicle custom1 custom2" speed="16.67" length="8.80" shape="4055.44,996.12 4056.54,998.37 4058.00,999.58 4059.45,1000.79 4060.55,1003.04"/>
    </edge>
    <edge id=":12_0" function="internal">
        <lane id=":12_0_0" index="0" disallow="tram rail_urban rail rail_electric ship" speed="12.50" length="20.14" shape="1309.47,1253.93 1292.54,1243.01"/>
    </edge>
    <edge id=":12_1" function="internal">
        <lane id=":12_1_0" index="0" disallow="tram rail_urban rail rail_electric ship" speed="11.11" length="20.16" shape="1311.76,1248.67 1305.66,1248.58 1301.41,1248.04 1297.52,1246.40 1292.54,1243.01"/>
        <lane id=":12_1_1" index="1" disallow="tram rail_urban rail rail_electric ship" speed="11.11" length="20.16" shape="1312.74,1245.46 1308.58,1246.13 1304.15,1245.51 1299.44,1243.62 1294.45,1240.45"/>
    </edge>
    <edge id=":120_0" function="internal">
        <lane id=":120_0_0" index="0" allow="private emergency authority army vip passenger hov taxi bus coach delivery truck trailer motorcycle evehicle custom1 custom2" speed="16.67" length="0.24" shape="4046.30,1001.88 4046.24,1001.71"/>
        <lane id=":120_0_1" index="1" allow="private emergency authority army vip passenger hov taxi bus coach delivery truck trailer motorcycle evehicle custom1 custom2" speed="16.67" length="0.24" shape="4049.34,1000.89 4049.24,1000.60"/>
    </edge>
    <edge id=":121_0" function="internal">
        <lane id=":121_0_0" index="0" allow="private emergency authority army vip passenger hov taxi bus coach delivery truck trailer motorcycle evehicle custom1 custom2" speed="16.67" length="0.33" shape="4026.81,1004.62 4026.71,1004.42"/>
        <lane id=":121_0_1" index="1" allow="private emergency authority army vip passenger hov taxi bus coach delivery truck trailer motorcycle evehicle custom1 custom2" speed="16.67" length="0.33" shape="4029.71,1003.26 4029.58,1003.00"/>
        <lane id=":121_0_2" index="2" allow="private emergency authority army vip passenger hov taxi bus coach delivery truck trailer motorcycle evehicle custom1 custom2" speed="16.67" length="0.33" shape="4032.61,1001.91 4032.45,1001.59"/>
        <lane id=":121_0_3" index="3" allow="private emergency authority army vip passenger hov taxi bus coach delivery truck trailer motorcycle evehicle custom1 custom2" speed="16.67" length="0.33" shape="4035.51,1000.56 4035.32,1000.17"/>
    </edge>
    <edge id=":122_0" function="internal">
        <lane id=":122_0_0" index="0" allow="private emergency authority army vip passenger hov taxi bus coach delivery truck trailer motorcycle evehicle custom1 custom2" speed="18.06" length="8.57" shape="4023.02,821.14 4024.18,823.43 4025.66,824.68 4027.10,825.93 4028.17,828.25"/>
        <lane id=":122_0_1" index="1" allow="private emergency authority army vip passenger hov taxi bus coach delivery truck trailer motorcycle evehicle custom1 custom2" speed="18.06" length="8.57" shape="4019.94,822.00 4021.09,824.26 4022.56,825.48 4024.00,826.71 4025.06,828.99"/>
        <lane id=":122_0_2" index="2" allow="private emergency authority army vip passenger hov taxi bus coach delivery truck trailer motorcycle evehicle custom1 custom2" speed="18.06" length="8.57" shape="4016.86,822.87 4018.00,825.09 4019.46,826.28 4020.90,827.48 4021.95,829.73"/>
        <lane id=":122_0_3" index="3" allow="private emergency authority army vip passenger hov taxi bus coach delivery truck trailer motorcycle evehicle custom1 custom2" speed="18.06" length="8.57" shape="4013.78,823.73 4014.91,825.92 4016.37,827.09 4017.79,828.26 4018.83,830.48"/>
        <lane id=":122_0_4" index="4" allow="private emergency authority army vip passenger hov taxi bus coach delivery truck trailer motorcycle evehicle custom1 custom2" speed="18.06" length="8.57" shape="4013.78,823.73 4015.72,831.22"/>
        <lane id=":122_0_5" index="5" allow="private emergency authority army vip passenger hov taxi bus coach delivery truck trailer motorcycle evehicle custom1 custom2" speed="18.06" length="8.57" shape="4013.78,823.73 4013.93,826.14 4013.25,827.83 4012.54,829.53 4012.61,831.96"/>
    </edge>
    <edge id=":123_0" function="internal">
        <lane id=":123_0_0" index="0" allow="private emergency authority army vip passenger hov taxi bus coach delivery truck trailer motorcycle evehicle custom1 custom2" speed="18.06" length="49.48" shape="4003.66,853.59 4001.31,844.05 3998.74,831.28 3996.32,817.52 3994.39,805.01"/>
    </edge>
    <edge id=":123_1" function="internal">
        <lane id=":123_1_0" index="0" allow="delivery bicycle pedestrian" speed="11.12" length="49.25" shape="4006.73,852.68 4003.70,841.89 3999.75,827.11 3996.21,813.20 3994.39,805.01"/>
    </edge>
    <edge id=":123_2" function="internal">
        <lane id=":123_2_0" index="0" allow="private emergency authority army vip passenger hov taxi bus coach delivery truck trailer motorcycle evehicle custom1 custom2" speed="18.06" length="49.01" shape="4006.73,852.68 4004.39,843.21 4001.86,830.60 3999.47,817.00 3997.56,804.57"/>
    </edge>
    <edge id=":123_3" function="internal">
        <lane id=":123_3_0" index="0" allow="private emergency authority army vip passenger hov taxi bus coach delivery truck trailer motorcycle evehicle custom1 custom2" speed="18.06" length="47.90" shape="3989.37,852.75 3991.03,839.08 3992.03,827.24 3992.17,816.32 3991.22,805.46"/>
        <lane id=":123_3_1" index="1" allow="private emergency authority army vip passenger hov taxi bus coach delivery truck trailer motorcycle evehicle custom1 custom2" speed="18.06" length="47.90" shape="3992.54,853.16 3994.20,839.36 3995.20,827.22 3995.34,816.01 3994.39,805.01"/>
    </edge>
    <edge id=":123_5" function="internal">
        <lane id=":123_5_0" index="0" allow="delivery bicycle pedestrian" speed="11.12" length="48.69" shape="3995.72,853.57 3996.68,838.31 3996.27,823.71 3995.25,811.90 3994.39,805.01"/>
    </edge>
    <edge id=":123_6" function="internal">
        <lane id=":123_6_0" index="0" allow="private emergency authority army vip passenger hov taxi bus coach delivery truck trailer motorcycle evehicle custom1 custom2" speed="18.06" length="49.59" shape="3998.89,853.98 4000.05,839.98 3999.96,827.40 3999.00,815.76 3997.56,804.57"/>
    </edge>
    <edge id=":124_0" function="internal">