<routes>
<vType id="SCar" length="4.75" minGap="1.20" maxSpeed="22.22" vClass="private" color="yellow" decel="5.5"/><vType id="Car" length="4.75" minGap="1.20" maxSpeed="22.22" vClass="private" color="240,230,2" decel="5.5"/>	<route id="route1" edges="27 28 29 311202398#0 311202398#1 132017141#1 354388232 18 19 19a 20 21 22 23 24 25 26 248722721#2 248722721#3 248722721#4 gneE1 5 248927010 77477369#1 77477369#2 gneE2 6 6a 7 8 9 11 12 13 14 15 77477389#4 77477389#0 77477359 16 549319303 77477334#4 77477334#0 77477384 17 251259919 77477329#7 77477329#0 77477329#1 77477331 77477309"/>
	<route id="route2" edges="27 28 30 354388214 354388200 24330636 135657123 135657120 67446155 354388221 158888001 527319204 527319206 245328442 152051288 527319195 67446110 404935451 24328854#5 24347613 142362617 77477329#1 77477331 77477309"/>

	<route id="sroute0" edges="100 251259917 77477329#3 77477329#4 77477329#5 77477323 77477317 549319305 77477334#2 77477353 77477395 549319302 77477389#2 77477376 77477324#0 249443656#0 249443656#3 249443656#3.432 249270205#0 249270205#0.177 160289846#0 249236831 249236832 248927011 77477369#4 77477398 77477402 248722725 248722721#6 248722721#0 248722719 549517179#0 621945350 248722722#0 248722722#1 621945352 621945353 561990751#1 561990751#2 354388229 132017141#3 132017141#4 132017141#5 132017149 462392866 462392867 311202397 188949094#0 188949094#1"/>
	<route id="sroute1" edges="100 251259917 77477329#3 77477329#4 77477329#5 77477323 77477317 549319305 77477334#2 77477353 77477395 549319302 77477389#2 77477376 77477324#0 249443656#0 249443656#3 249443656#3.432 249270205#0 249270205#0.177 160289846#0 249236831 249236832 248927011 77477369#4 77477398 77477402 248722725 248722721#6 248722721#0 248722719 549517179#0 621945350 248722722#0 248722722#1 621945352 621945353 561990751#1 561990751#2 354388229 132017141#3 132017141#4 132017141#5 132017149 462392866 462392867 311202397 188949094#0 188949094#1"/>
	<route id="sroute2" edges="27 28 29 311202398#0 311202398#1 132017141#1 354388232 18 19 19a 20 21 22 23 24 25 26 248722721#2 248722721#3 248722721#4 gneE1 5 248927010 77477369#1 77477369#2 gneE2 6 6a 7 8 9 11 12 13 14 15 77477389#4 77477389#0 77477359 16 549319303 77477334#4 77477334#0 77477384 17 251259919 77477329#7 77477329#0 77477329#1 77477331 77477309"/>
	<route id="sroute3" edges="27 28 29 311202398#0 311202398#1 132017141#1 354388232 18 19 19a 20 21 22 23 24 25 26 248722721#2 248722721#3 248722721#4 gneE1 5 248927010 77477369#1 77477369#2 gneE2 6 6a 7 8 9 11 12 13 14 15 77477389#4 77477389#0 77477359 16 549319303 77477334#4 77477334#0 77477384 17 251259919 77477329#7 77477329#0 77477329#1 77477331 77477309"/>
	<route id="sroute4" edges="100 251259917 77477329#3 77477329#4 77477329#5 77477329#6 77477329#7 77477351 142362611 24328854#1 96183767 95710171#3 95710174 95710174.113 158879917 319611365 319611368 319611376 185675533 319615438 158888049 158888040 354388269 354388286 354388274#0 354388274#1 354388253 158888013 354388205 354388194 462392854 354388197 354388212 598399304 462392864 462392865 354388217 96065608 96065606 132017141#5 132017149 462392866 462392867 311202397 188949094#0 188949094#1"/>
	<route id="sroute5" edges="27 28 30 354388214 354388200 354388209 354388196 389783912 389783905 24443869 95223244 95223248 354388265 354388254 462392853 354388235 354388273#0 319615445 354388279 319615440 319615444 185675534 319611363 319611367 34634650 319611361#1 319611361#1.82 95710171#1 96183778 24328854#3 24328854#4 24328854#5 24347613 142362617 77477329#1 77477331 77477309"/>
	<route id="sroute6" edges="27 28 30 354388214 354388200 24330636 135657123 135657120 67446155 354388221 158888001 527319204 527319206 245328442 152051288 527319195 67446110 404935451 24328854#5 24347613 142362617 77477329#1 77477331 77477309"/>
	<route id="sroute7" edges="100 251259917 77477329#3 77477329#4 77477329#5 77477329#6 77477329#7 77477351 142362611 24328854#1 24328854#2 24328854#3 404935462 67446185 142362639 598399309 142362576 152051296 598399308 598399307 527319205 598399306 598399305 158888002 354388220 462392856 354388224 598399304 462392864 462392865 354388217 96065608 96065606 132017141#5 132017149 462392866 462392867 311202397 188949094#0 188949094#1"/>
	<route id="sroute8" edges="319615443 319615442 95223237 319615440 319615444 185675534 319611363 319611367 319611372 319611370"/>
	<route id="sroute9" edges="319611362 294492782 319611365 319611368 319611376 185675533 319615438 319615439 319615436"/>
	<route id="sroute10" edges="462392872 462392868 96039763 96039766 354388214 354388200 354388209 354388196 389783912 389783905 389783908"/>
	<route id="sroute11" edges="389783911.154 354388205 354388194 462392854 354388197 354388212 598399304 462392864 462392865 354388217 96065608 462392870 462392869"/>
	<route id="sroute12" edges="1 251259918 77477329#5 77477329#6 77477329#7 77477351 142362611 24328854#1 96183767 95710171#3 95710174 95710174.113 158879913 319611370"/>
	<route id="sroute13" edges="1 251259918 77477329#5 77477329#6 77477329#7 77477351 142362611 24328854#1 96183767 95710171#3 95710174 95710174.113 158879917 319611365 319611368 319611376 185675533 319615438 319615439 319615436"/>
	<route id="sroute14" edges="1 251259918 77477329#5 77477329#6 77477329#7 77477351 142362611 24328854#1 24328854#2 24328854#3 404935462 67446167 245327988#1"/>
	<route id="sroute15" edges="1 251259918 77477329#5 77477329#6 77477329#7 77477329#0 77477329#1 77477331 77477309"/>
	<route id="sroute16" edges="1 251259918 77477329#5 77477323 77477317 549319305 77477334#2 77477353 77477395 549319302 77477389#2 77477376 77477324#0 249443656#0 249443656#3 249443656#3.432 249270205#0 249270205#0.177 160289846#0 249236831 249236832 248927011 77477369#4 77477398 77477402 248722725 248722721#6 248722721#0 248722719 549517179#0 621945350 248722722#0 248722722#1 621945352 621945353 561990751#1 561990751#2 354388229 132017141#3 132017141#4 132017141#5 132017149 462392866 462392867 311202397 188949094#0 188949094#1"/>
	<route id="sroute17" edges="1 251259918 77477329#5 77477323 77477317 549319305 77477334#2 77477353 77477395 549319302 77477389#2 77477376 77477324#0 249443656#0 249443656#3 249443656#3.432 249270205#0 249270205#0.177 160289846#0 249236831 249236832 248927011 77477369#4 77477398 77477402 248722725 248722721#6 248722721#0 248722721#1 248722721#2 549802402 -248846659#1"/>
	<route id="sroute18" edges="100 251259917 77477329#3 142362623 2"/>
	<route id="sroute19" edges="516175821 527319202 142362634 142362642 404935451 24328854#5 24347613 142362617 77477329#1 77477329#2 77477329#3 142362623 2"/>
	<route id="sroute20" edges="516175821 527319202 245327987 598399309 142362576 152051296 598399308 598399307 527319205 598399306 598399305 158888002 354388220 462392856 354388224 598399304 462392864 462392865 354388217 96065608 462392870 462392869"/>
	<route id="sroute21" edges="516175821 527319202 245327987 598399309 142362576 152051296 598399308 598399307 527319205 598399306 598399305 158888002 354388220 462392856 148050996 462392857 462392859 148051000 148051003 354388223 354388196 389783912 389783905 389783908"/>
	<route id="sroute22" edges="27 28 30 354388214 354388200 354388209 354388196 389783912 389783905 389783908"/>
	<route id="sroute23" edges="27 28 29 311202398#0 311202398#1 132017141#1 132017141#2 132017141#3 132017142 462392869"/>
	<route id="sroute24" edges="27 28 30 354388214 354388200 24330636 135657123 135657120 67446155 354388221 158888001 527319204 527319206 245328442 152051288 527319195 142362585 245327988#1"/>
	<route id="sroute25" edges="27 28 30 354388214 354388200 354388209 354388196 389783912 389783905 24443869 95223244 95223248 354388265 354388254 462392853 354388235 354388273#0 24443883 319615436"/>
	<route id="sroute26" edges="27 28 30 354388214 354388200 354388209 354388196 389783912 389783905 24443869 95223244 95223248 354388265 354388254 462392853 354388235 354388273#0 319615445 354388279 319615440 319615444 185675534 319611363 319611367 319611372 319611370"/>
	<route id="sroute27" edges="319611362 294492782 319611365 319611368 319611376 185675533 319615438 158888049 158888040 354388269 354388286 354388274#0 354388274#1 354388253 24443872 95223238 95223234"/>
	<route id="sroute28" edges="319611362 294492782 319611365 319611368 319611376 185675533 319615438 158888049 158888040 354388275 354388234 354388274#0 354388274#1 354388253 24443872 95223238 95223234"/>
	<route id="sroute29" edges="319611362 294492782 319611365 319611368 319611376 185675533 319615438 158888049 158888040 354388269 354388286 354388274#0 354388274#1 354388253 158888013 354388205 354388194 462392854 354388197 354388212 598399304 462392864 462392865 354388217 96065608 462392870 462392869"/>
	<route id="sroute30" edges="319611362 294492782 319611365 319611368 319611376 185675533 319615438 158888049 158888040 354388275 354388234 354388274#0 354388274#1 354388253 158888013 354388205 354388194 462392854 354388197 354388212 598399304 462392864 462392865 354388217 96065608 462392870 462392869"/>
	<route id="sroute31" edges="319615443 319615442 24443886 158888040 354388269 354388286 354388274#0 354388274#1 354388253 158888013 354388205 354388194 462392854 354388197 354388212 598399304 462392864 462392865 354388217 96065608 462392870 462392869"/>
	<route id="sroute32" edges="319611362 294492782 319611365 319611368 319611376 185675533 319615438 158888049 158888040 354388269 354388286 354388274#0 354388274#1 354388253 158888013 354388205 354388194 462392854 354388197 354388212 598399304 462392864 462392865 354388217 96065608 96065606 132017141#5 132017149 462392866 462392867 311202397 188949094#0 188949094#1"/>
	<route id="sroute33" edges="319611362 294492782 319611365 319611368 319611376 185675533 319615438 158888049 158888040 354388275 354388234 354388274#0 354388274#1 354388253 158888013 354388205 354388194 462392854 354388197 354388212 598399304 462392864 462392865 354388217 96065608 96065606 132017141#5 132017149 462392866 462392867 311202397 188949094#0 188949094#1"/>
	<route id="sroute34" edges="27 28 29 311202398#0 311202398#1 132017141#1 354388232 18 19 19a 20 21 22 23 24 25 26 248722721#2 549802402 -248846659#1"/>
	<route id="sroute35" edges="248846659#1.206 248722726 248722721#4 248722721#5 248722721#6 248722721#0 248722719 549517179#0 621945350 248722722#0 248722722#1 621945352 621945353 561990751#1 561990751#2 354388229 132017141#3 132017141#4 132017141#5 132017149 462392866 462392867 311202397 188949094#0 188949094#1"/>
	<route id="sroute36" edges="248846659#1.206 248722726 248722721#4 gneE1 5 248927010 77477369#1 77477369#2 gneE2 6 6a 7 8 9 11 12 13 14 15 77477389#4 77477389#0 77477359 16 549319303 77477334#4 77477334#0 77477384 17 251259919 77477329#7 77477329#0 77477329#1 77477331 77477309"/>
	<route id="sroute37" edges="462392872 132017151 188949094#1"/>
	<route id="sroute38" edges="516175821 527319202 245327987 598399309 142362576 152051296 598399308 598399307 527319205 598399306 598399305 158888002 354388220 462392856 354388224 598399304 462392864 462392865 354388217 96065608 96065606 132017141#5 132017149 462392866 462392867 311202397 188949094#0"/>
	<route id="sroute39" edges="462392872 462392868 96039763 96039766 354388214 354388200 24330636 135657123 135657120 67446155 354388221 158888001 527319204 527319206 245328442 152051288 527319195 142362585 245327988#1"/>
	<route id="sroute40" edges="462392872 462392868 96039763 96039766 354388214 354388200 354388209 354388196 389783912 389783905 24443869 95223244 95223248 354388265 354388254 462392853 354388235 354388273#0 319615445 354388279 319615440 319615444 185675534 319611363 319611367 319611372 319611370"/>
	<route id="sroute41" edges="462392872 462392868 96039763 96039766 354388214 354388200 354388209 354388196 389783912 389783905 24443869 95223244 95223248 354388265 354388254 462392853 354388235 354388273#0 24443883 319615436"/>
	<route id="sroute42" edges="24443879.82 354388254 462392853 354388235 354388273#0 24443883 319615436"/>
	<route id="sroute43" edges="24443879.82 354388254 462392853 354388235 354388273#0 319615445 354388279 319615440 319615444 185675534 319611363 319611367 319611372 319611370"/>
	<route id="sroute44" edges="389783911.154 354388205 354388194 462392854 354388197 67446165 67446155 354388221 158888001 527319204 527319206 245328442 152051288 527319195 142362585 245327988#1"/>

	<vehicle depart="1.0" id="sveh1" route="sroute21" type="SCar" departSpeed="max" />
	<vehicle depart="16.0" id="sveh2" route="sroute39" type="SCar" departSpeed="max" />
	<vehicle depart="22.0" id="sveh3" route="sroute20" type="SCar" departSpeed="max" />
	<vehicle depart="29.0" id="sveh4" route="sroute40" type="SCar" departSpeed="max" />
	<vehicle depart="31.0" id="sveh6" route="sroute9" type="SCar" departSpeed="max" />
	<vehicle depart="31.0" id="sveh5" route="sroute0" type="SCar" departSpeed="max" />
	<vehicle depart="41.0" id="sveh7" route="sroute11" type="SCar" departSpeed="max" />
	<vehicle depart="42.0" id="sveh8" route="sroute11" type="SCar" departSpeed="max" />
	<vehicle depart="45.0" id="sveh9" route="sroute8" type="SCar" departSpeed="max" />
	<vehicle depart="52.0" id="sveh10" route="sroute9" type="SCar" departSpeed="max" />
	<vehicle depart="53.0" id="sveh11" route="sroute2" type="SCar" departSpeed="max" />
	<vehicle depart="55.0" id="sveh12" route="sroute10" type="SCar" departSpeed="max" />
	<vehicle depart="58.0" id="sveh13" route="sroute41" type="SCar" departSpeed="max" />
	<vehicle depart="59.0" id="sveh14" route="sroute20" type="SCar" departSpeed="max" />
	<vehicle depart="62.0" id="sveh15" route="sroute28" type="SCar" departSpeed="max" />
	<vehicle depart="68.0" id="sveh16" route="sroute39" type="SCar" departSpeed="max" />
	<vehicle depart="69.0" id="sveh17" route="sroute20" type="SCar" departSpeed="max" />
	<vehicle depart="72.0" id="sveh18" route="sroute9" type="SCar" departSpeed="max" />
	<vehicle depart="77.0" id="sveh19" route="sroute31" type="SCar" departSpeed="max" />
	<vehicle depart="80.0" id="sveh20" route="sroute36" type="SCar" departSpeed="max" />
	<vehicle depart="86.0" id="sveh21" route="sroute35" type="SCar" departSpeed="max" />
	<vehicle depart="88.0" id="sveh22" route="sroute15" type="SCar" departSpeed="max" />
	<vehicle depart="92.0" id="sveh23" route="sroute34" type="SCar" departSpeed="max" />
	<vehicle depart="94.0" id="sveh24" route="sroute18" type="SCar" departSpeed="max" />
	<vehicle depart="103.0" id="sveh25" route="sroute8" type="SCar" departSpeed="max" />
	<vehicle depart="116.0" id="sveh26" route="sroute0" type="SCar" departSpeed="max" />
	<vehicle depart="125.0" id="sveh27" route="sroute10" type="SCar" departSpeed="max" />
	<vehicle depart="134.0" id="sveh28" route="sroute20" type="SCar" departSpeed="max" />
	<vehicle depart="136.0" id="sveh29" route="sroute31" type="SCar" departSpeed="max" />
	<vehicle depart="138.0" id="sveh30" route="sroute39" type="SCar" departSpeed="max" />
	<vehicle depart="141.0" id="sveh31" route="sroute36" type="SCar" departSpeed="max" />
	<vehicle depart="147.0" id="sveh33" route="sroute26" type="SCar" departSpeed="max" />
	<vehicle depart="147.0" id="sveh34" route="sroute39" type="SCar" departSpeed="max" />
	<vehicle depart="147.0" id="sveh32" route="sroute14" type="SCar" departSpeed="max" />
	<vehicle depart="151.0" id="sveh35" route="sroute10" type="SCar" departSpeed="max" />
	<vehicle depart="152.0" id="sveh36" route="sroute8" type="SCar" departSpeed="max" />
	<vehicle depart="163.0" id="sveh37" route="sroute20" type="SCar" departSpeed="max" />
	<vehicle depart="165.0" id="sveh38" route="sroute36" type="SCar" departSpeed="max" />
	<vehicle depart="170.0" id="sveh39" route="sroute35" type="SCar" departSpeed="max" />
	<vehicle depart="174.0" id="sveh40" route="sroute20" type="SCar" departSpeed="max" />
	<vehicle depart="179.0" id="sveh42" route="sroute43" type="SCar" departSpeed="max" />
	<vehicle depart="179.0" id="sveh41" route="sroute38" type="SCar" departSpeed="max" />
	<vehicle depart="183.0" id="sveh43" route="sroute8" type="SCar" departSpeed="max" />
	<vehicle depart="191.0" id="sveh44" route="sroute34" type="SCar" departSpeed="max" />
	<vehicle depart="202.0" id="sveh45" route="sroute24" type="SCar" departSpeed="max" />
	<vehicle depart="215.0" id="sveh46" route="sroute8" type="SCar" departSpeed="max" />
	<vehicle depart="217.0" id="sveh47" route="sroute39" type="SCar" departSpeed="max" />
	<vehicle depart="226.0" id="sveh48" route="sroute8" type="SCar" departSpeed="max" />
	<vehicle depart="226.0" id="sveh49" route="sroute11" type="SCar" departSpeed="max" />
	<vehicle depart="237.0" id="sveh50" route="sroute31" type="SCar" departSpeed="max" />
	<vehicle depart="239.0" id="sveh51" route="sroute22" type="SCar" departSpeed="max" />
	<vehicle depart="249.0" id="sveh52" route="sroute8" type="SCar" departSpeed="max" />
	<vehicle depart="254.0" id="veh0" route="route1" type="Car" color="1,0,0" departSpeed="max" />
	<vehicle depart="261.0" id="sveh53" route="sroute9" type="SCar" departSpeed="max" />
	<vehicle depart="264.0" id="sveh54" route="sroute42" type="SCar" departSpeed="max" />
	<vehicle depart="289.0" id="sveh55" route="sroute9" type="SCar" departSpeed="max" />
	<vehicle depart="307.0" id="sveh56" route="sroute35" type="SCar" departSpeed="max" />
	<vehicle depart="320.0" id="sveh57" route="sroute9" type="SCar" departSpeed="max" />
	<vehicle depart="321.0" id="sveh58" route="sroute11" type="SCar" departSpeed="max" />
	<vehicle depart="328.0" id="sveh59" route="sroute40" type="SCar" departSpeed="max" />
	<vehicle depart="333.0" id="sveh60" route="sroute0" type="SCar" departSpeed="max" />
	<vehicle depart="333.0" id="sveh61" route="sroute9" type="SCar" departSpeed="max" />
	<vehicle depart="333.0" id="veh1" route="route1" type="Car" color="1,0,0" departSpeed="max" />
	<vehicle depart="339.0" id="sveh62" route="sroute9" type="SCar" departSpeed="max" />
	<vehicle depart="347.0" id="sveh63" route="sroute8" type="SCar" departSpeed="max" />
	<vehicle depart="376.0" id="sveh64" route="sroute8" type="SCar" departSpeed="max" />
	<vehicle depart="379.0" id="sveh65" route="sroute8" type="SCar" departSpeed="max" />
	<vehicle depart="388.0" id="sveh66" route="sroute24" type="SCar" departSpeed="max" />
	<vehicle depart="401.0" id="sveh67" route="sroute9" type="SCar" departSpeed="max" />
	<vehicle depart="402.0" id="sveh68" route="sroute8" type="SCar" departSpeed="max" />
	<vehicle depart="408.0" id="sveh69" route="sroute25" type="SCar" departSpeed="max" />
	<vehicle depart="423.0" id="sveh71" route="sroute22" type="SCar" departSpeed="max" />
	<vehicle depart="423.0" id="sveh70" route="sroute9" type="SCar" departSpeed="max" />
	<vehicle depart="435.0" id="sveh72" route="sroute15" type="SCar" departSpeed="max" />
	<vehicle depart="444.0" id="sveh73" route="sroute7" type="SCar" departSpeed="max" />
	<vehicle depart="450.0" id="sveh74" route="sroute11" type="SCar" departSpeed="max" />
	<vehicle depart="452.0" id="sveh75" route="sroute0" type="SCar" departSpeed="max" />
	<vehicle depart="455.0" id="sveh76" route="sroute8" type="SCar" departSpeed="max" />
	<vehicle depart="473.0" id="sveh77" route="sroute9" type="SCar" departSpeed="max" />
	<vehicle depart="477.0" id="sveh78" route="sroute35" type="SCar" departSpeed="max" />
	<vehicle depart="487.0" id="sveh79" route="sroute9" type="SCar" departSpeed="max" />
	<vehicle depart="505.0" id="sveh80" route="sroute20" type="SCar" departSpeed="max" />
	<vehicle depart="510.0" id="sveh81" route="sroute29" type="SCar" departSpeed="max" />
	<vehicle depart="514.0" id="sveh82" route="sroute8" type="SCar" departSpeed="max" />
	<vehicle depart="527.0" id="sveh83" route="sroute8" type="SCar" departSpeed="max" />
	<vehicle depart="535.0" id="sveh84" route="sroute0" type="SCar" departSpeed="max" />
	<vehicle depart="535.0" id="sveh85" route="sroute23" type="SCar" departSpeed="max" />
	<vehicle depart="537.0" id="sveh86" route="sroute10" type="SCar" departSpeed="max" />
	<vehicle depart="549.0" id="sveh87" route="sroute19" type="SCar" departSpeed="max" />
	<vehicle depart="550.0" id="sveh88" route="sroute10" type="SCar" departSpeed="max" />
	<vehicle depart="552.0" id="sveh89" route="sroute10" type="SCar" departSpeed="max" />
	<vehicle depart="555.0" id="sveh90" route="sroute1" type="SCar" departSpeed="max" />
	<vehicle depart="555.0" id="sveh91" route="sroute21" type="SCar" departSpeed="max" />
	<vehicle depart="556.0" id="sveh92" route="sroute28" type="SCar" departSpeed="max" />
	<vehicle depart="562.0" id="sveh93" route="sroute19" type="SCar" departSpeed="max" />
	<vehicle depart="564.0" id="sveh94" route="sroute28" type="SCar" departSpeed="max" />
	<vehicle depart="565.0" id="sveh95" route="sroute8" type="SCar" departSpeed="max" />
	<vehicle depart="568.0" id="sveh96" route="sroute0" type="SCar" departSpeed="max" />
	<vehicle depart="574.0" id="sveh97" route="sroute9" type="SCar" departSpeed="max" />
	<vehicle depart="578.0" id="sveh98" route="sroute44" type="SCar" departSpeed="max" />
	<vehicle depart="597.0" id="sveh100" route="sroute25" type="SCar" departSpeed="max" />
	<vehicle depart="597.0" id="sveh99" route="sroute20" type="SCar" departSpeed="max" />
	<vehicle depart="618.0" id="sveh101" route="sroute9" type="SCar" departSpeed="max" />
	<vehicle depart="620.0" id="sveh102" route="sroute0" type="SCar" departSpeed="max" />
	<vehicle depart="623.0" id="sveh103" route="sroute9" type="SCar" departSpeed="max" />
	<vehicle depart="627.0" id="sveh105" route="sroute29" type="SCar" departSpeed="max" />
	<vehicle depart="627.0" id="sveh104" route="sroute11" type="SCar" departSpeed="max" />
	<vehicle depart="628.0" id="sveh106" route="sroute31" type="SCar" departSpeed="max" />
	<vehicle depart="629.0" id="sveh107" route="sroute28" type="SCar" departSpeed="max" />
	<vehicle depart="630.0" id="sveh109" route="sroute29" type="SCar" departSpeed="max" />
	<vehicle depart="630.0" id="sveh108" route="sroute10" type="SCar" departSpeed="max" />
	<vehicle depart="636.0" id="sveh110" route="sroute9" type="SCar" departSpeed="max" />
	<vehicle depart="642.0" id="sveh111" route="sroute44" type="SCar" departSpeed="max" />
	<vehicle depart="663.0" id="sveh112" route="sroute25" type="SCar" departSpeed="max" />
	<vehicle depart="664.0" id="sveh113" route="sroute20" type="SCar" departSpeed="max" />
	<vehicle depart="666.0" id="sveh114" route="sroute4" type="SCar" departSpeed="max" />
	<vehicle depart="667.0" id="sveh115" route="sroute8" type="SCar" departSpeed="max" />
	<vehicle depart="669.0" id="sveh116" route="sroute9" type="SCar" departSpeed="max" />
	<vehicle depart="695.0" id="sveh117" route="sroute10" type="SCar" departSpeed="max" />
	<vehicle depart="696.0" id="sveh118" route="sroute39" type="SCar" departSpeed="max" />
	<vehicle depart="700.0" id="sveh119" route="sroute11" type="SCar" departSpeed="max" />
	<vehicle depart="701.0" id="sveh120" route="sroute23" type="SCar" departSpeed="max" />
	<vehicle depart="702.0" id="sveh121" route="sroute8" type="SCar" departSpeed="max" />
	<vehicle depart="703.0" id="sveh122" route="sroute21" type="SCar" departSpeed="max" />
	<vehicle depart="704.0" id="sveh123" route="sroute35" type="SCar" departSpeed="max" />
	<vehicle depart="707.0" id="sveh125" route="sroute30" type="SCar" departSpeed="max" />
	<vehicle depart="707.0" id="sveh126" route="sroute31" type="SCar" departSpeed="max" />
	<vehicle depart="707.0" id="sveh124" route="sroute11" type="SCar" departSpeed="max" />
	<vehicle depart="720.0" id="veh2" route="route1" type="Car" color="1,0,0" departSpeed="max" />
	<vehicle depart="723.0" id="sveh127" route="sroute11" type="SCar" departSpeed="max" />
	<vehicle depart="734.0" id="sveh128" route="sroute26" type="SCar" departSpeed="max" />
	<vehicle depart="735.0" id="sveh129" route="sroute18" type="SCar" departSpeed="max" />
	<vehicle depart="739.0" id="sveh130" route="sroute8" type="SCar" departSpeed="max" />
	<vehicle depart="746.0" id="sveh131" route="sroute9" type="SCar" departSpeed="max" />
	<vehicle depart="760.0" id="sveh132" route="sroute11" type="SCar" departSpeed="max" />
	<vehicle depart="766.0" id="sveh133" route="sroute10" type="SCar" departSpeed="max" />
	<vehicle depart="772.0" id="sveh134" route="sroute29" type="SCar" departSpeed="max" />
	<vehicle depart="778.0" id="sveh135" route="sroute8" type="SCar" departSpeed="max" />
	<vehicle depart="808.0" id="sveh136" route="sroute31" type="SCar" departSpeed="max" />
	<vehicle depart="825.0" id="sveh137" route="sroute39" type="SCar" departSpeed="max" />
	<vehicle depart="831.0" id="sveh138" route="sroute24" type="SCar" departSpeed="max" />
	<vehicle depart="834.0" id="sveh139" route="sroute2" type="SCar" departSpeed="max" />
	<vehicle depart="845.0" id="sveh140" route="sroute8" type="SCar" departSpeed="max" />
	<vehicle depart="881.0" id="sveh141" route="sroute31" type="SCar" departSpeed="max" />
	<vehicle depart="898.0" id="sveh142" route="sroute9" type="SCar" departSpeed="max" />
	<vehicle depart="903.0" id="sveh143" route="sroute37" type="SCar" departSpeed="max" />
	<vehicle depart="912.0" id="sveh144" route="sroute0" type="SCar" departSpeed="max" />
	<vehicle depart="924.0" id="sveh145" route="sroute42" type="SCar" departSpeed="max" />
	<vehicle depart="932.0" id="sveh146" route="sroute9" type="SCar" departSpeed="max" />
	<vehicle depart="936.0" id="sveh147" route="sroute9" type="SCar" departSpeed="max" />
	<vehicle depart="937.0" id="sveh148" route="sroute39" type="SCar" departSpeed="max" />
	<vehicle depart="942.0" id="veh3" route="route1" type="Car" color="1,0,0" departSpeed="max" />
	<vehicle depart="969.0" id="sveh149" route="sroute25" type="SCar" departSpeed="max" />
	<vehicle depart="972.0" id="sveh150" route="sroute8" type="SCar" departSpeed="max" />
	<vehicle depart="979.0" id="sveh151" route="sroute10" type="SCar" departSpeed="max" />
	<vehicle depart="980.0" id="sveh152" route="sroute35" type="SCar" departSpeed="max" />
	<vehicle depart="983.0" id="sveh153" route="sroute9" type="SCar" departSpeed="max" />
	<vehicle depart="986.0" id="sveh154" route="sroute11" type="SCar" departSpeed="max" />
	<vehicle depart="995.0" id="sveh155" route="sroute31" type="SCar" departSpeed="max" />
	<vehicle depart="1001.0" id="sveh156" route="sroute9" type="SCar" departSpeed="max" />
	<vehicle depart="1031.0" id="sveh158" route="sroute39" type="SCar" departSpeed="max" />
	<vehicle depart="1031.0" id="sveh157" route="sroute9" type="SCar" departSpeed="max" />
	<vehicle depart="1038.0" id="sveh159" route="sroute19" type="SCar" departSpeed="max" />
	<vehicle depart="1039.0" id="sveh160" route="sroute0" type="SCar" departSpeed="max" />
	<vehicle depart="1050.0" id="sveh161" route="sroute9" type="SCar" departSpeed="max" />
	<vehicle depart="1062.0" id="sveh162" route="sroute39" type="SCar" departSpeed="max" />
	<vehicle depart="1076.0" id="sveh163" route="sroute44" type="SCar" departSpeed="max" />
	<vehicle depart="1085.0" id="sveh164" route="sroute20" type="SCar" departSpeed="max" />
	<vehicle depart="1087.0" id="sveh165" route="sroute9" type="SCar" departSpeed="max" />
	<vehicle depart="1093.0" id="sveh166" route="sroute20" type="SCar" departSpeed="max" />
	<vehicle depart="1106.0" id="sveh167" route="sroute9" type="SCar" departSpeed="max" />
	<vehicle depart="1114.0" id="sveh168" route="sroute8" type="SCar" departSpeed="max" />
	<vehicle depart="1123.0" id="sveh169" route="sroute9" type="SCar" departSpeed="max" />
	<vehicle depart="1138.0" id="sveh170" route="sroute8" type="SCar" departSpeed="max" />
	<vehicle depart="1143.0" id="sveh171" route="sroute11" type="SCar" departSpeed="max" />
	<vehicle depart="1149.0" id="sveh172" route="sroute9" type="SCar" departSpeed="max" />
	<vehicle depart="1155.0" id="sveh173" route="sroute8" type="SCar" departSpeed="max" />
	<vehicle depart="1160.0" id="sveh174" route="sroute24" type="SCar" departSpeed="max" />
	<vehicle depart="1161.0" id="sveh175" route="sroute23" type="SCar" departSpeed="max" />
	<vehicle depart="1163.0" id="sveh176" route="sroute8" type="SCar" departSpeed="max" />
	<vehicle depart="1168.0" id="sveh177" route="sroute11" type="SCar" departSpeed="max" />
	<vehicle depart="1173.0" id="sveh178" route="sroute0" type="SCar" departSpeed="max" />
	<vehicle depart="1187.0" id="sveh179" route="sroute31" type="SCar" departSpeed="max" />
	<vehicle depart="1194.0" id="sveh180" route="sroute27" type="SCar" departSpeed="max" />
	<vehicle depart="1206.0" id="sveh181" route="sroute8" type="SCar" departSpeed="max" />
	<vehicle depart="1224.0" id="sveh182" route="sroute0" type="SCar" departSpeed="max" />
	<vehicle depart="1227.0" id="sveh184" route="sroute39" type="SCar" departSpeed="max" />
	<vehicle depart="1227.0" id="sveh183" route="sroute26" type="SCar" departSpeed="max" />
	<vehicle depart="1230.0" id="sveh185" route="sroute27" type="SCar" departSpeed="max" />
	<vehicle depart="1232.0" id="sveh186" route="sroute9" type="SCar" departSpeed="max" />
	<vehicle depart="1233.0" id="sveh187" route="sroute26" type="SCar" departSpeed="max" />
	<vehicle depart="1238.0" id="sveh188" route="sroute31" type="SCar" departSpeed="max" />
	<vehicle depart="1241.0" id="sveh189" route="sroute8" type="SCar" departSpeed="max" />
	<vehicle depart="1244.0" id="sveh190" route="sroute9" type="SCar" departSpeed="max" />
	<vehicle depart="1248.0" id="sveh191" route="sroute11" type="SCar" departSpeed="max" />
	<vehicle depart="1255.0" id="sveh192" route="sroute8" type="SCar" departSpeed="max" />
	<vehicle depart="1259.0" id="sveh193" route="sroute10" type="SCar" departSpeed="max" />
	<vehicle depart="1266.0" id="sveh194" route="sroute36" type="SCar" departSpeed="max" />
	<vehicle depart="1268.0" id="sveh195" route="sroute35" type="SCar" departSpeed="max" />
	<vehicle depart="1269.0" id="sveh197" route="sroute39" type="SCar" departSpeed="max" />
	<vehicle depart="1269.0" id="sveh196" route="sroute0" type="SCar" departSpeed="max" />