<configuration>

<input>
<net-file value="Porto.net.xml"/>
<route-files value="Trips6AM7AM.rou.xml"/>
<additional-files value="Additional_Files.add.xml"/>

</input>

<time>
<begin value="0"/>
<end value="3600"/>
</time>

<output>
<write-license value="true"/>
<fcd-output.geo value="true"/>
<summary value="porto_summary_data.xml"/>
<vehroute-output value="porto_route_data.xml"/>

</output>

<processing>
<time-to-teleport value="-1"/>
</processing>

</configuration>

