<routes>
<vType id="SCar" length="4.75" minGap="1.20" maxSpeed="22.22" vClass="private" color="yellow" decel="5.5"/><vType id="Car" length="4.75" minGap="1.20" maxSpeed="22.22" vClass="private" color="240,230,2" decel="5.5"/>	<route id="route1" edges="49982592 14327274 211924702#1 14327260#0 14327260#1 14327260#2 -14327505#1 -14327505#0 30417987#0 30417987#1 30417987#2 30417987#3 482327709#0 482327709#1 482327709#2 482327709#3 482327709#4 482327709#5 553528125 211641911 211641909#0 211641909#1 35171965#0 35171965#1 35171965#2 35171965#3 35171965#4 35171965#5 35171965#6 30417989#0 30417989#1 349620090#0 349620090#1 349620090#2 349620090#3 349620090#4 349620089 gneE26 gneE25"/>
	<route id="route2" edges="256605510 13798688#0 13798688#1 13798768 13797988#0 13797988#1 13797988#1.119 479365561 4257028 479365562 479365563 478886779 478882411 478886778 345566829 345566831 478886777 478886775 478886776 30911274 480146205 549444954 434878390#0 434878390#1 549444950 549444961 549444965 549444969 549444982#0 549444982#1 549444982#2 448850571 159959891#0 159959891#1 159959891#2 159959891#3 549269426#0 549269426#1 549269427 549269428#0 549269428#1 549269428#2 549269428#3 549269433 27149272 -549266388 -482324643#1 -482324643#0 -549266390 -549266389 -549266394#1 -549266394#0 -549266391#1 -549266391#0 -549266392 -549266393#1 -549266393#0 -482327703#1 -482327703#0 -549266395 -549266396 -549266397#1 -549266397#0 -549266398#1 -549266398#0 -549266401#1 -549266401#0 -549266399#1 -549266399#0 -549266400#1 -549266400#0 -482324651#1 -482324651#0 -549266404#2 -549266404#1 -549266404#0 -549266403 -336758567#1 -336758567#0 -549266406#1 -549266406#0 549266412#0 549266412#1 549266412#2 -549266409#2 gneE6 350915450#5 350915450#6 350915450#7 350915450#8 350915450#9 350915450#10 34916303#0 34916303#1 221905591#0 221905591#1 221905591#2 221905591#3 14327545#0 14327545#1 14327867 452075654#0 452075654#1 14327868#0 14327868#1 14327868#2 14327438 30417987#0 30417987#1 30417987#2 30417987#3 482327709#0 482327709#1 482327709#2 482327709#3 482327709#4 482327709#5 553528125 211641911 211641909#0 211641909#1 35171965#0 35171965#1 35171965#2 35171965#3 35171965#4 35171965#5 35171965#6 30417989#0 30417989#1 349620090#0 349620090#1 349620090#2 349620090#3 349620090#4 349620089 gneE26 gneE25"/>
	<route id="route3" edges="-224648421#0 -224646232#4 -224646232#3 -224646232#2 -224646232#1 -224646232#0 -128363658#5 -128363658#4 -128363658#3 -128363658#2 -128363658#1 -128363658#0 128363659#0 482240915#1 128363661 -482261341 -207634505#1 -207634505#0 -482261338#1 -482261338#0 -482261339#1 -482261339#0 -207634523#1 -207634523#0 -200072875 -482296563#1 -482296563#0 -212706762#1 -212706762#0 -482296560#1 -482296560#0 -482296561 -36748084#2 -36748084#1 -36748084#0 167487364 448860910#0 448860910#1 -156211618#2 -156211618#1 -156211618#0 -434860177#1 -434860177#0 -386286210 13801323 13801868#0 13801868#1 258853581#0 258853581#1 258853581#2 258853581#3 258853581#4 13802005 259888928#0 259888928#1 259888928#2 259888928#3 14326493#0 14326493#1 14326493#2 14326493#3 14326493#4 211436103#0 211436103#1 697598025 697598026 14326464#0 14326464#1 14326464#2 14326464#3 14326464#4 14326464#5 14326464#6 14326464#7 14326558#0 14326558#1 14326558#2 14326558#3 14326558#4 14326558#5 608420973 448850568#0 448850568#1 210831460#0 210831460#1 715176794 307804461 715176795#0 715176795#1 gneE26 gneE25"/>
	<route id="route4" edges="480148041 34711126 480148058 478886770 478886769 478886767 478886768 37856708#0 37856708#1 480146201 159959890 480146203 480146206 480146205 549444954 434878390#0 434878390#1 549444950 549444961 549444965 549444969 549444982#0 549444982#1 549444982#2 448850571 159959891#0 159959891#1 159959891#2 159959891#3 549269426#0 549269426#1 549269427 549269428#0 549269428#1 549269428#2 549269428#3 549269433 27149272 -549266388 -482324643#1 -482324643#0 -549266390 -549266389 -549266394#1 -549266394#0 -549266391#1 -549266391#0 -549266392 -549266393#1 -549266393#0 -482327703#1 -482327703#0 -549266395 -549266396 -549266397#1 -549266397#0 -549266398#1 -549266398#0 -549266401#1 -549266401#0 -549266399#1 -549266399#0 -549266400#1 -549266400#0 -482324651#1 -482324651#0 -549266404#2 -549266404#1 -549266404#0 -549266403 -336758567#1 -336758567#0 -549266406#1 -549266406#0 549266412#0 549266412#1 549266412#2 -549266409#2 gneE6 350915450#5 350915450#6 350915450#7 350915450#8 350915450#9 350915450#10 34916303#0 34916303#1 221905591#0 221905591#1 221905591#2 221905591#3 14327545#0 14327545#1 14327867 452075654#0 452075654#1 14327868#0 14327868#1 14327868#2 14327438 30417987#0 30417987#1 30417987#2 30417987#3 482327709#0 482327709#1 482327709#2 482327709#3 482327709#4 482327709#5 553528125 211641911 211641909#0 211641909#1 35171965#0 35171965#1 35171965#2 35171965#3 35171965#4 35171965#5 35171965#6 30417989#0 30417989#1 349620090#0 349620090#1 349620090#2 349620090#3 349620090#4 349620089 gneE26 gneE25"/>
	<route id="route5" edges="13714843#0 13714843#1 13714843#2 13714843#3 39654094#0 30912902#0 30912902#1 -35474708 35474709#0 35474709#1 35044072#4 35044072#0 479198381 479198380 106586052 95841151 95841156 37113029 453274470 13797813 479365564 479365561 4257028 479365562 479365563 478886779 478882411 478886778 345566829 345566831 478886777 478886775 478886776 30911274 480146205 549444954 434878390#0 434878390#1 549444950 549444961 549444965 549444969 549444982#0 549444982#1 549444982#2 448850571 159959891#0 159959891#1 159959891#2 159959891#3 549269426#0 549269426#1 549269427 549269428#0 549269428#1 549269428#2 549269428#3 549269433 27149272 -549266388 -482324643#1 -482324643#0 -549266390 -549266389 -549266394#1 -549266394#0 -549266391#1 -549266391#0 -549266392 -549266393#1 -549266393#0 -482327703#1 -482327703#0 -549266395 -549266396 -549266397#1 -549266397#0 -549266398#1 -549266398#0 -549266401#1 -549266401#0 -549266399#1 -549266399#0 -549266400#1 -549266400#0 -482324651#1 -482324651#0 -549266404#2 -549266404#1 -549266404#0 -549266403 -336758567#1 -336758567#0 -549266406#1 -549266406#0 549266412#0 549266412#1 549266412#2 -549266409#2 gneE6 350915450#5 350915450#6 350915450#7 350915450#8 350915450#9 350915450#10 34916303#0 34916303#1 221905591#0 221905591#1 221905591#2 221905591#3 14327545#0 14327545#1 14327867 452075654#0 452075654#1 14327868#0 14327868#1 14327868#2 14327438 30417987#0 30417987#1 30417987#2 30417987#3 482327709#0 482327709#1 482327709#2 482327709#3 482327709#4 482327709#5 553528125 211641911 211641909#0 211641909#1 35171965#0 35171965#1 35171965#2 35171965#3 35171965#4 35171965#5 35171965#6 30417989#0 30417989#1 349620090#0 349620090#1 349620090#2 349620090#3 349620090#4 349620089 gneE26 gneE25"/>
	<route id="route6" edges="96151239#5 96151239#6 96151239#7 96151239#8 96151239#9 13278020#0 13278020#1 13278020#2 13278020#3 13278020#4 13278020#5 13278020#6 13278020#7 13278020#8 420021610 419935504 -217344337#5 -217344337#4 -217344337#3 -217344337#2 -217344337#1 -217344337#0 -216891254#2 -216891254#1 -216891254#0 -643548708 -304684297#1 -304684297#0 349620089 gneE26 gneE25"/>
	<route id="route7" edges="479198389 35044068 453274492 479198388 479198387 479198385 95841148 479198384 479198383 479187301#1 35044065 35044064 479192144 479192143 95841134 95841156 37113029 453274470 13797813 479365564 479365561 4257028 479365562 479365563 478886779 478882411 478886778 345566829 345566831 478886777 478886775 478886776 30911274 480146205 549444954 434878390#0 434878390#1 549444950 549444961 549444965 549444969 549444982#0 549444982#1 549444982#2 448850571 159959891#0 159959891#1 159959891#2 159959891#3 549269426#0 549269426#1 549269427 549269428#0 549269428#1 549269428#2 549269428#3 549269433 27149272 -549266388 -482324643#1 -482324643#0 -549266390 -549266389 -549266394#1 -549266394#0 -549266391#1 -549266391#0 -549266392 -549266393#1 -549266393#0 -482327703#1 -482327703#0 -549266395 -549266396 -549266397#1 -549266397#0 -549266398#1 -549266398#0 -549266401#1 -549266401#0 -549266399#1 -549266399#0 -549266400#1 -549266400#0 -482324651#1 -482324651#0 -549266404#2 -549266404#1 -549266404#0 -549266403 -336758567#1 -336758567#0 -549266406#1 -549266406#0 549266412#0 549266412#1 549266412#2 -549266409#2 gneE6 350915450#5 350915450#6 350915450#7 350915450#8 350915450#9 350915450#10 34916303#0 34916303#1 221905591#0 221905591#1 221905591#2 221905591#3 14327545#0 14327545#1 14327867 452075654#0 452075654#1 14327868#0 14327868#1 14327868#2 14327438 30417987#0 30417987#1 30417987#2 30417987#3 482327709#0 482327709#1 482327709#2 482327709#3 482327709#4 482327709#5 553528125 211641911 211641909#0 211641909#1 35171965#0 35171965#1 35171965#2 35171965#3 35171965#4 35171965#5 35171965#6 30417989#0 30417989#1 349620090#0 349620090#1 349620090#2 349620090#3 349620090#4 349620089 gneE26 gneE25"/>
	<route id="route8" edges="434879925#0 434879925#1 434879925#2 434879925#3 434879925#4 252543837 482331424#0 482331424#1 482331424#2 482331424#3 482331424#4 482331424#5 -675897037#1 -675897037#0 -27292882#4 -27292882#3 35105603 546885677 546885675#2 546885675#3 546885675#4 546885675#5 546885675#6 13716624 34935295#0 34935295#1 34935295#2 34935295#3 34935295#4 34935295#5 34935295#6 350915450#0 350915450#1 350915450#2 350915450#3 350915450#4 350915450#5 350915450#6 350915450#7 350915450#8 350915450#9 350915450#10 34916303#0 34916303#1 221905591#0 221905591#1 221905591#2 221905591#3 14327545#0 14327545#1 14327867 452075654#0 452075654#1 14327868#0 14327868#1 14327868#2 14327438 30417987#0 30417987#1 30417987#2 30417987#3 482327709#0 482327709#1 482327709#2 482327709#3 482327709#4 482327709#5 553528125 211641911 211641909#0 211641909#1 35171965#0 35171965#1 35171965#2 35171965#3 35171965#4 35171965#5 35171965#6 30417989#0 30417989#1 349620090#0 349620090#1 349620090#2 349620090#3 349620090#4 349620089 gneE26 gneE25"/>
	<route id="route9" edges="-238872916#7 -238872916#6 -238872916#5 -238872916#4 -238872916#3 -238872916#2 -238872916#1 -238872916#0 -12544650 -13278159#1 -13278159#0 226908041#0 226908041#1 -420021609 419935504 -217344337#5 -217344337#4 -217344337#3 -217344337#2 -217344337#1 -217344337#0 -216891254#2 -216891254#1 -216891254#0 -643548708 -304684297#1 -304684297#0 349620089 gneE26 gneE25"/>
	<route id="route10" edges="367461723 4259344 367461725 345566832 345566832.163 345566831 478886777 478886775 478886776 30911274 480146205 549444954 434878390#0 434878390#1 549444950 549444961 549444965 549444969 549444982#0 549444982#1 549444982#2 448850571 159959891#0 159959891#1 159959891#2 159959891#3 549269426#0 549269426#1 549269427 549269428#0 549269428#1 549269428#2 549269428#3 549269433 27149272 -549266388 -482324643#1 -482324643#0 -549266390 -549266389 -549266394#1 -549266394#0 -549266391#1 -549266391#0 -549266392 -549266393#1 -549266393#0 -482327703#1 -482327703#0 -549266395 -549266396 -549266397#1 -549266397#0 -549266398#1 -549266398#0 -549266401#1 -549266401#0 -549266399#1 -549266399#0 -549266400#1 -549266400#0 -482324651#1 -482324651#0 -549266404#2 -549266404#1 -549266404#0 -549266403 -336758567#1 -336758567#0 -549266406#1 -549266406#0 549266412#0 549266412#1 549266412#2 -549266409#2 gneE6 350915450#5 350915450#6 350915450#7 350915450#8 350915450#9 350915450#10 34916303#0 34916303#1 221905591#0 221905591#1 221905591#2 221905591#3 14327545#0 14327545#1 14327867 452075654#0 452075654#1 14327868#0 14327868#1 14327868#2 14327438 30417987#0 30417987#1 30417987#2 30417987#3 482327709#0 482327709#1 482327709#2 482327709#3 482327709#4 482327709#5 553528125 211641911 211641909#0 211641909#1 35171965#0 35171965#1 35171965#2 35171965#3 35171965#4 35171965#5 35171965#6 30417989#0 30417989#1 349620090#0 349620090#1 349620090#2 349620090#3 349620090#4 349620089 gneE26 gneE25"/>
	<route id="route11" edges="-549249237#0 -391839901#3 -391839901#2 -391839901#1 -391839901#0 -391839883 -14328611 8367103#0 8367103#1 34916303#0 34916303#1 221905591#0 221905591#1 221905591#2 221905591#3 14327545#0 14327545#1 14327867 452075654#0 452075654#1 14327868#0 14327868#1 14327868#2 14327438 30417987#0 30417987#1 30417987#2 30417987#3 482327709#0 482327709#1 482327709#2 482327709#3 482327709#4 482327709#5 553528125 211641911 211641909#0 211641909#1 35171965#0 35171965#1 35171965#2 35171965#3 35171965#4 35171965#5 35171965#6 30417989#0 30417989#1 349620090#0 349620090#1 349620090#2 349620090#3 349620090#4 349620089 gneE26 gneE25"/>
	<route id="route12" edges="34774629#0 34774629#1 34774629#2 34774629#3 34798406 241364281 13798089 448858673 13798541 13798105 241364287#0 241364287#1 480140406 478886779 478882411 478886778 345566829 345566831 478886777 478886775 478886776 30911274 480146205 549444954 434878390#0 434878390#1 549444950 549444961 549444965 549444969 549444982#0 549444982#1 549444982#2 448850571 159959891#0 159959891#1 159959891#2 159959891#3 549269426#0 549269426#1 549269427 549269428#0 549269428#1 549269428#2 549269428#3 549269433 27149272 -549266388 -482324643#1 -482324643#0 -549266390 -549266389 -549266394#1 -549266394#0 -549266391#1 -549266391#0 -549266392 -549266393#1 -549266393#0 -482327703#1 -482327703#0 -549266395 -549266396 -549266397#1 -549266397#0 -549266398#1 -549266398#0 -549266401#1 -549266401#0 -549266399#1 -549266399#0 -549266400#1 -549266400#0 -482324651#1 -482324651#0 -549266404#2 -549266404#1 -549266404#0 -549266403 -336758567#1 -336758567#0 -549266406#1 -549266406#0 549266412#0 549266412#1 549266412#2 -549266409#2 gneE6 350915450#5 350915450#6 350915450#7 350915450#8 350915450#9 350915450#10 34916303#0 34916303#1 221905591#0 221905591#1 221905591#2 221905591#3 14327545#0 14327545#1 14327867 452075654#0 452075654#1 14327868#0 14327868#1 14327868#2 14327438 30417987#0 30417987#1 30417987#2 30417987#3 482327709#0 482327709#1 482327709#2 482327709#3 482327709#4 482327709#5 553528125 211641911 211641909#0 211641909#1 35171965#0 35171965#1 35171965#2 35171965#3 35171965#4 35171965#5 35171965#6 30417989#0 30417989#1 349620090#0 349620090#1 349620090#2 349620090#3 349620090#4 349620089 gneE26 gneE25"/>
	<route id="route13" edges="-36928561 227574867#0 227574867#1 227574867#2 227574867#3 227574867#4 227574867#5 227574867#6 227574867#7 98835813#0 98835813#1 386578584#5 gneE28 446557314#0 446557314#1 446557314#2 -12319876#1 -12319876#0 447104331 386578485 386578516 12391255 212711378 454037681 212711375#0 212711375#1 209442098#0 209442098#1 176070929#0 176070929#1 212711374#0 212711374#1 212711374#2 199488827#0 199488827#1 199488827#2 608418573#0 608418573#1 608418575 608418574#0 608418574#1 608418574#2 608418574#3 608418574#4 608418574#5 608418574#6 608418577 13854848#0 13854848#1 13854848#2 13854848#3 13854848#4 13854848#5 30405564#0 30405564#1 30405564#2 34648522 30405489#0 30405489#1 30405489#2 30405489#3 30405489#4 30405489#5 27149321#2 39632852#0 39632852#1 39632852#2 39632852#3 39632852#4 39632852#5 34627575#0 34627575#1 34627575#2 8367069#0 8367069#1 8367069#2 498298757#4 498298756 643196090 34607492#0 210669782 95843586 174689855 210673563#0 210673563#1 210673563#2 38336627#0 38336627#1 38336627#2 210841125#1 207724051#0 207724051#1 207724051#2 38336643 8367114#0 8367114#1 8367114#2 8367114#3 8367114#4 252526952#0 252526952#1 252526955#0 252526955#1 252526955#2 252526955#3 350915450#5 350915450#6 350915450#7 350915450#8 350915450#9 350915450#10 34916303#0 34916303#1 221905591#0 221905591#1 221905591#2 221905591#3 14327545#0 14327545#1 14327867 452075654#0 452075654#1 14327868#0 14327868#1 14327868#2 14327438 30417987#0 30417987#1 30417987#2 30417987#3 482327709#0 482327709#1 482327709#2 482327709#3 482327709#4 482327709#5 553528125 211641911 211641909#0 211641909#1 35171965#0 35171965#1 35171965#2 35171965#3 35171965#4 35171965#5 35171965#6 30417989#0 30417989#1 349620090#0 349620090#1 349620090#2 349620090#3 349620090#4 349620089 gneE26 gneE25"/>
	<route id="route14" edges="31721081#2 31721081#3 31721081#4 -321496804#3 -321496804#2 -321496804#1 -321496804#0 -261980637#5 -261980637#4 -261980637#3 -261980637#2 -261980637#1 -261980637#0 221684836 221684839 -14327505#3 -14327505#2 -14327505#1 -14327505#0 30417987#0 30417987#1 30417987#2 30417987#3 482327709#0 482327709#1 482327709#2 482327709#3 482327709#4 482327709#5 553528125 211641911 211641909#0 211641909#1 35171965#0 35171965#1 35171965#2 35171965#3 35171965#4 35171965#5 35171965#6 30417989#0 30417989#1 349620090#0 349620090#1 349620090#2 349620090#3 349620090#4 349620089 gneE26 gneE25"/>
	<route id="route15" edges="460839284 12297710#0 12297710#1 95841153 95841130 13848688#0 13848688#1 13848688#2 482276568 482276567 482264025#0 482264025#1 128363661 -482261341 -207634505#1 -207634505#0 -482261338#1 -482261338#0 -482261339#1 -482261339#0 -207634523#1 -207634523#0 -200072875 -482296563#1 -482296563#0 -212706762#1 -212706762#0 -482296560#1 -482296560#0 -482296561 -36748084#2 -36748084#1 -36748084#0 167487364 448860910#0 448860910#1 -156211618#2 -156211618#1 -156211618#0 -434860177#1 -434860177#0 -386286210 13801323 13801868#0 13801868#1 258853581#0 258853581#1 258853581#2 258853581#3 258853581#4 13802005 259888928#0 259888928#1 259888928#2 259888928#3 14326493#0 14326493#1 14326493#2 14326493#3 14326493#4 211436103#0 211436103#1 697598025 697598026 14326464#0 14326464#1 14326464#2 14326464#3 14326464#4 14326464#5 14326464#6 14326464#7 14326558#0 14326558#1 14326558#2 14326558#3 14326558#4 14326558#5 608420973 448850568#0 448850568#1 210831460#0 210831460#1 715176794 307804461 715176795#0 715176795#1 gneE26 gneE25"/>
	<route id="route16" edges="110801277#0 110801277#1 110801277#2 110801268 135411080#0 135411080#1 189908445#0 189908445#1 224646233#0 224646233#1 224646233#2 224646233#3 224646233#4 224646233#5 224646233#6 224646233#7 250949165#0 250949165#1 250949165#3 250949165#4 705491646#0 705491646#1 705491648 608418574#0 608418574#1 608418574#2 608418574#3 608418574#4 608418574#5 608418574#6 608418577 13854848#0 13854848#1 13854848#2 13854848#3 13854848#4 13854848#5 30405564#0 30405564#1 30405564#2 34648522 30405489#0 30405489#1 30405489#2 30405489#3 30405489#4 30405489#5 27149321#2 39632852#0 39632852#1 39632852#2 39632852#3 39632852#4 39632852#5 34627575#0 34627575#1 34627575#2 8367069#0 8367069#1 8367069#2 498298757#4 498298756 643196090 34607492#0 210669782 95843586 174689855 210673563#0 210673563#1 210673563#2 38336627#0 38336627#1 38336627#2 210841125#1 207724051#0 207724051#1 207724051#2 38336643 8367114#0 8367114#1 8367114#2 8367114#3 8367114#4 252526952#0 252526952#1 252526955#0 252526955#1 252526955#2 252526955#3 350915450#5 350915450#6 350915450#7 350915450#8 350915450#9 350915450#10 34916303#0 34916303#1 221905591#0 221905591#1 221905591#2 221905591#3 14327545#0 14327545#1 14327867 452075654#0 452075654#1 14327868#0 14327868#1 14327868#2 14327438 30417987#0 30417987#1 30417987#2 30417987#3 482327709#0 482327709#1 482327709#2 482327709#3 482327709#4 482327709#5 553528125 211641911 211641909#0 211641909#1 35171965#0 35171965#1 35171965#2 35171965#3 35171965#4 35171965#5 35171965#6 30417989#0 30417989#1 349620090#0 349620090#1 349620090#2 349620090#3 349620090#4 349620089 gneE26 gneE25"/>
	<route id="route17" edges="-262474849#1 -262474849#0 252518642#0 252518642#1 252518644#0 252518644#1 252518644#2 13802005 259888928#0 259888928#1 259888928#2 259888928#3 14326493#0 14326493#1 14326493#2 14326493#3 14326493#4 211436103#0 211436103#1 697598025 697598026 14326464#0 14326464#1 14326464#2 14326464#3 14326464#4 14326464#5 14326464#6 14326464#7 14326558#0 14326558#1 14326558#2 14326558#3 14326558#4 14326558#5 608420973 448850568#0 448850568#1 210831460#0 210831460#1 715176794 307804461 715176795#0 715176795#1 gneE26 gneE25"/>
	<route id="route18" edges="1 2 536714314#3 637225052 480146201 159959890 480146203 480146206 480146205 549444954 434878390#0 434878390#1 549444950 549444961 549444965 549444969 549444982#0 549444982#1 549444982#2 448850571 159959891#0 159959891#1 159959891#2 159959891#3 549269426#0 549269426#1 549269427 549269428#0 549269428#1 549269428#2 549269428#3 549269433 27149272 -549266388 -482324643#1 -482324643#0 -549266390 -549266389 -549266394#1 -549266394#0 -549266391#1 -549266391#0 -549266392 -549266393#1 -549266393#0 -482327703#1 -482327703#0 -549266395 -549266396 -549266397#1 -549266397#0 -549266398#1 -549266398#0 -549266401#1 -549266401#0 -549266399#1 -549266399#0 -549266400#1 -549266400#0 -482324651#1 -482324651#0 -549266404#2 -549266404#1 -549266404#0 -549266403 -336758567#1 -336758567#0 -549266406#1 -549266406#0 549266412#0 549266412#1 549266412#2 -549266409#2 gneE6 350915450#5 350915450#6 350915450#7 350915450#8 350915450#9 350915450#10 34916303#0 34916303#1 221905591#0 221905591#1 221905591#2 221905591#3 14327545#0 14327545#1 14327867 452075654#0 452075654#1 14327868#0 14327868#1 14327868#2 14327438 30417987#0 30417987#1 30417987#2 30417987#3 482327709#0 482327709#1 482327709#2 482327709#3 482327709#4 482327709#5 553528125 211641911 211641909#0 211641909#1 35171965#0 35171965#1 35171965#2 35171965#3 35171965#4 35171965#5 35171965#6 30417989#0 30417989#1 349620090#0 349620090#1 349620090#2 349620090#3 349620090#4 349620089 gneE26 gneE25"/>
	<route id="route19" edges="100 101 106440984 479127826 479127827 95791510 95791517 31573502 223288611 223288612 223288609 223288613 -12319876#1 -12319876#0 447104331 386578485 386578516 12391255 212711378 454037681 212711375#0 212711375#1 209442098#0 209442098#1 176070929#0 176070929#1 212711374#0 212711374#1 212711374#2 199488827#0 199488827#1 199488827#2 608418573#0 608418573#1 608418575 608418574#0 608418574#1 608418574#2 608418574#3 608418574#4 608418574#5 608418574#6 608418577 13854848#0 13854848#1 13854848#2 13854848#3 13854848#4 13854848#5 30405564#0 30405564#1 30405564#2 34648522 30405489#0 30405489#1 30405489#2 30405489#3 30405489#4 30405489#5 27149321#2 39632852#0 39632852#1 39632852#2 39632852#3 39632852#4 39632852#5 34627575#0 34627575#1 34627575#2 8367069#0 8367069#1 8367069#2 498298757#4 498298756 643196090 34607492#0 210669782 95843586 174689855 210673563#0 210673563#1 210673563#2 38336627#0 38336627#1 38336627#2 210841125#1 207724051#0 207724051#1 207724051#2 38336643 8367114#0 8367114#1 8367114#2 8367114#3 8367114#4 252526952#0 252526952#1 252526955#0 252526955#1 252526955#2 252526955#3 350915450#5 350915450#6 350915450#7 350915450#8 350915450#9 350915450#10 34916303#0 34916303#1 221905591#0 221905591#1 221905591#2 221905591#3 14327545#0 14327545#1 14327867 452075654#0 452075654#1 14327868#0 14327868#1 14327868#2 14327438 30417987#0 30417987#1 30417987#2 30417987#3 482327709#0 482327709#1 482327709#2 482327709#3 482327709#4 482327709#5 553528125 211641911 211641909#0 211641909#1 35171965#0 35171965#1 35171965#2 35171965#3 35171965#4 35171965#5 35171965#6 30417989#0 30417989#1 349620090#0 349620090#1 349620090#2 349620090#3 349620090#4 349620089 gneE26 gneE25"/>

	<route id="sroute0" edges="460839284 35539786#0 35539786#1 447313060 63202748 447313061 63202744 13703057 13703054 479165875 453955769 479181126 479127855 479127854 386578590 663328755 479127853 663340772 479127852 663340771 479127851 4256495 479127850 479127839 4256491 108390772 479127836 663340770 95791537 453763721"/>
	<route id="sroute1" edges="460839284 35539786#0 35539786#1 447313060 63202748 447313061 63202744 13703057 13703054 479165875 453955769 479181126 479127855 479127854 106441015 398030859 398035550 398030858 479127828 105482346 479187305 430528809 479187304 453274475 35047583 35047585 479187301#0 479187301#1 35044065 35044064 479192144 479192143 95841134 95841156 37113029 480083544 13797951#0 13797951#1 13798768 13798716#1 13798716#2 -256605510"/>
	<route id="sroute2" edges="460839284 35539786#0 35539786#1 447313060 63202748 447313061 63202744 13703057 13703054 479165875 453955769 479181126 479127855 479127854 386578590 663328755 479127853 663340772 8137307 453764134#0 453764134#1 386578584#3 446557315#0 446557315#1 446557317#0 446557317#1 446557317#2 446557317#3 446557317#4 446557317#5 36928561"/>
	<route id="sroute3" edges="106586101#0 106586101#1 479187303 479192145 35047582 35047581 479127849 398030856 479127848 398030863 479183661 4256513 95791537 453763721"/>
	<route id="sroute4" edges="479198389 35044068 453274492 479198388 479198387 479198385 95841148 479198384 479198383 479187301#1 35044065 35044064 479192144 479192143 95841134 95841156 37113029 453274470 13797813 479365564 479365561 4257028 479365562 479365563 478886779 478882411 478886778 345566829 345566831 478886777 478886775 478886776 478886774 478886773 478886772 478886771 29036508 480146192 480146191 480148052 35006698"/>
	<route id="sroute5" edges="479198389 35044068 453274492 479198388 479198387 479198385 95841148 479198384 479198383 479187301#1 35044065 35044064 479192144 479192143 95841134 95841156 37113029 453274470 13797813 479365564 479365561 4257028 479365562 479365563 478886779 478882411 478886778 4259341 345566834 29036513 367461726 367461722"/>
	<route id="sroute6" edges="479198389 35044068 453274492 479198388 479198387 453274495 479198386 479198382 35044072#2 167487481 35474708 -30912902#1 -30912902#0 39654094#1 39654094#2 251256098 39654345 453493822#0 453493822#1 453493822#2 453493822#3 453493822#4 453493822#5 610238564 13715172 189908446 608418578#0 608418578#1 608418573#0 608418573#1 454038641 705491647#0 705491647#1 705491647#2 705491645#0 705491645#1 705491645#2 705491645#3 705491645#4 705491645#5 705491645#6 224647868#0 224647868#1 224647868#2 224647868#3 224647868#4 224647868#5 546881512 189908447 327439257 589296694 135411081 110801275 110801271#0 110801271#1 110801271#2 110801271#3 110801271#4"/>
	<route id="sroute7" edges="-36928561 227574867#0 227574867#1 227574867#2 227574867#3 227574867#4 227574867#5 227574867#6 227574867#7 98835813#0 98835813#1 386578584#5 386578584#6 386578584#7 386578487#2 386578584#8 386578584#0 386578584#1 12386249#0 12386249#1 479127842 479127840 4256507 479127830 479127829 398030858 479127828 105482346 479187305 430528809 479187304 453274475 35047583 35047585 479187301#0 479187301#1 35044065 35044064 479192144 479192143 95841134 95841156 37113029 480083544 13797951#0 13797951#1 13798768 13798716#1 13798716#2 -256605510"/>
	<route id="sroute8" edges="479198389 35044068 453274492 479198388 479198387 479198385 95841148 479198384 479198383 479187301#1 35044065 35044064 479192144 479192143 95841134 95841156 37113029 453274470 13797813 479365564 479365561 4257028 479365562 479365563 478886779 478882411 478886778 345566829 345566831 478886777 478886775 478886776 478886774 478886773 478886772 27293116 27293116.145 480146204 159959889 480146202 480146200 480146199 480146196 480146195 29036519#0 29036519#1 549454264#0 549454264#1"/>
	<route id="sroute9" edges="479198389 35044068 453274492 479198388 479198387 453274495 479198386 479198382 35044072#2 35044072#3 35044072#4 35044072#0 479198381 479198380 35011273 479198379 479198374"/>
	<route id="sroute10" edges="479198389 35044068 453274492 479198388 479198387 479198385 95841148 479198384 479198383 479187301#1 35044065 35044064 479192144 479192143 95841134 95841156 37113029 480083544 13797951#0 13797951#1 13798768 13798716#1 13798716#2 -256605510"/>
	<route id="sroute11" edges="479198389 35044068 453274492 479198388 479198387 453274495 479198386 479198382 35044072#2 167487481 35474708 -30912902#1 -30912902#0 -39654094#0 -13714843#3 -448867793 -172963174#5 -172963174#4 -172963174#3 -172963174#2"/>
	<route id="sroute12" edges="479198389 35044068 453274492 479198388 479198387 453274495 479198386 479198382 35044072#2 167487481 35474708 -30912902#1 -30912902#0 39654094#1 39654094#2 251256098 39654345 453493822#0 453762943#0 453762943#1 453762943#2 453762943#3 453762943#4 453762943#5 453762943#6 453761206#0 453761206#1 453761206#2 453761206#3 453761206#4 453761206#5 453761206#6 453761206#7 453761206#8 453761206#9 453761206#10 453761206#11 453761206#12 453761206#13 453761206#14 13715562 453761207 34772371#0 34772371#1 34772371#2 34772371#3 34772371#4 434872539#0 434872539#1 434872538 210669783 -287648900 167487357#0 167487357#1 14326572#0 14326572#1 14326572#2 14326572#3 60175941#0 60175941#1 60175941#2 60175941#3 60175941#4 60175941#5 60175941#6 60175941#7 60175941#8 216972581#0 216972581#1 216972581#2 216972581#3 216972581#4 216972581#5 216972581#6 216972801#0 216972801#1 608420973 448850568#0 448850568#1 210831460#0 210831460#1 715176794 307804461 715176795#0 715176795#1 -349620089 -349620090#4 -349620090#3 -349620090#2 -349620090#1 -349620090#0 -30417989#1 -30417989#0 -35171965#6 -35171965#5 -35171965#4 -35171965#3 -35171965#2 -35171965#1 -35171965#0 -211641909#1 -211641909#0 -211641911 -553528125 -482327709#5 -482327709#4 -482327709#3 -482327709#2 -482327709#1 -482327709#0 14327318#0 14327318#1 14327318#2 14327318#3 173072170 173072164"/>
	<route id="sroute13" edges="460839284 35539786#0 35539786#1 447313060 63202748 447313061 63202744 13703057 13703054 479165875 453955769 479181126 479127855 479127854 386578590 663328755 479127853 663340772 8137307 453764134#0 453764134#1 386578584#3 386578584#4 386578584#5 gneE28 446557314#0 446557314#1 446557314#2 -12319876#1 -12319876#0 447104331 386578485 386578516 12391255 212711378 454037681 13714507 105637465 209436196#0 209436196#1 209436196#2 608419120#0 608419120#1 453762943#0 453762943#1 453762943#2 453762943#3 453762943#4 453762943#5 453762943#6 453761206#0 453761206#1 453761206#2 453761206#3 453761206#4 453761206#5 453761206#6 453761206#7 453761206#8 453761206#9 453761206#10 453761206#11 453761206#12 453761206#13 453761206#14 13715562 453761208 453761209 453761211#0 453761211#1 453761213 608419462#0 608419462#1 608419462#2 608419462#3 608419462#4 453762948#0 453762948#1 453761210#2 212708374#1 212708374#2 212710703#0 212710703#1 212710703#2 547657336 547657337 547657333#0 547657333#1 547657333#2 547657334 547657335 480140401#1 13798291#0 547657329 -34774629#2 -34774629#1 -34774629#0"/>