<?xml version="1.0" encoding="UTF-8"?>

<!-- generated on 01/30/20 15:57:06 by Eclipse SUMO netedit Version 1.3.1
<configuration xmlns:xsi="http://www.w3.org/2001/XMLSchema-instance" xsi:noNamespaceSchemaLocation="http://sumo.dlr.de/xsd/netconvertConfiguration.xsd">

    <input>
        <sumo-net-file value="C:\Porto_29_01_2020\8AM9AM\Porto.net.xml"/>
    </input>

    <output>
        <output-file value="C:\Porto_29_01_2020\8AM9AM\Porto.net.xml"/>
    </output>

    <processing>
        <geometry.max-grade.fix value="false"/>
        <offset.disable-normalization value="true"/>
        <opposites.guess.fix-lengths value="true"/>
        <lefthand value="false"/>
    </processing>

    <junctions>
        <no-turnarounds value="true"/>
        <junctions.corner-detail value="5"/>
        <junctions.limit-turn-speed value="5.5"/>
        <rectangular-lane-cut value="false"/>
    </junctions>

    <pedestrian>
        <walkingareas value="false"/>
    </pedestrian>

    <netedit>
        <route-files value="C:\Porto_29_01_2020\8AM9AM\Trips8AM9AM_bus.rou.xml"/>
    </netedit>

</configuration>
-->

<routes xmlns:xsi="http://www.w3.org/2001/XMLSchema-instance" xsi:noNamespaceSchemaLocation="http://sumo.dlr.de/xsd/routes_file.xsd">
    <vType id="CV" length="4.75" minGap="1.20" maxSpeed="22.22" vClass="private" color="red" decel="5.5" tau="1.2"/>
    <vType id="HDV" length="9.00" minGap="2.00" maxSpeed="22.22" vClass="truck" color="blue" decel="2.5" tau="1.2"/>
    <vType id="Routing_Boavista" length="4.75" minGap="1.20" maxSpeed="22.22" vClass="private" color="green" decel="5.5" tau="1.2"/>
    <vType id="Routing_SaoBento" length="4.75" minGap="1.20" maxSpeed="22.22" vClass="private" color="240,230,2" decel="5.5" tau="1.2"/>
    <vType id="SCTPStandard" length="12.00" minGap="3.50" maxSpeed="22.22" vClass="bus" color="blue" decel="4" tau="1.2"/>
    <vType id="STCPArticulado" length="18.00" minGap="2.00" maxSpeed="22.22" vClass="bus" color="white" decel="3.5" tau="1.2"/>
    <vType id="VAN" minGap="1.00" maxSpeed="22.22" vClass="delivery" color="black" decel="4.5" tau="1.2"/>
    <route edges="460839284 35539786#0 35539786#1 447313060 63202748 447313061 63202744 13703057 13703054 479165875 453955769 479181126 479127855 479127854 386578590 663328755 479127853 663340772 479127852 663340771 479127851 4256495 479127850 479127839 4256491 108390772 479127836 663340770 95791537 453763721" color="yellow" id="route_0"/>
    <route edges="460839284 35539786#0 35539786#1 447313060 63202748 447313061 63202744 13703057 13703054 479165875 453955769 479181126 479127855 479127854 106441015 398030859 398035550 398030858 479127828 105482346 479187305 430528809 479187304 453274475 35047583 35047585 479187301#0 479187301#1 35044065 35044064 479192144 479192143 95841134 95841156 37113029 480083544 13797951#0 13797951#1 13798768 13798716#1 13798716#2 -256605510" color="yellow" id="route_1"/>
    <route edges="460839284 35539786#0 35539786#1 447313060 63202748 447313061 63202744 13703057 13703054 479165875 453955769 479181126 479127855 479127854 386578590 663328755 479127853 663340772 8137307 453764134#0 453764134#1 386578584#3 446557315#0 446557315#1 446557317#0 446557317#1 446557317#2 446557317#3 446557317#4 446557317#5 36928561" color="yellow" id="route_10"/>
    <route edges="106586101#0 106586101#1 479187303 479192145 35047582 35047581 479127849 398030856 479127848 398030863 479183661 4256513 95791537 453763721" color="yellow" id="route_100"/>
    <route edges="479198389 35044068 453274492 479198388 479198387 479198385 95841148 479198384 479198383 479187301#1 35044065 35044064 479192144 479192143 95841134 95841156 37113029 453274470 13797813 479365564 479365561 4257028 479365562 479365563 478886779 478882411 478886778 345566829 345566831 478886777 478886775 478886776 478886774 478886773 478886772 478886771 29036508 480146192 480146191 480148052 35006698" color="yellow" id="route_101"/>
    <route edges="479198389 35044068 453274492 479198388 479198387 479198385 95841148 479198384 479198383 479187301#1 35044065 35044064 479192144 479192143 95841134 95841156 37113029 453274470 13797813 479365564 479365561 4257028 479365562 479365563 478886779 478882411 478886778 4259341 345566834 29036513 367461726 367461722" color="yellow" id="route_102"/>
    <route edges="479198389 35044068 453274492 479198388 479198387 453274495 479198386 479198382 35044072#2 167487481 35474708 -30912902#1 -30912902#0 39654094#1 39654094#2 251256098 39654345 453493822#0 453493822#1 453493822#2 453493822#3 453493822#4 453493822#5 610238564 13715172 189908446 608418578#0 608418578#1 608418573#0 608418573#1 454038641 705491647#0 705491647#1 705491647#2 705491645#0 705491645#1 705491645#2 705491645#3 705491645#4 705491645#5 705491645#6 224647868#0 224647868#1 224647868#2 224647868#3 224647868#4 224647868#5 546881512 189908447 327439257 589296694 135411081 110801275 110801271#0 110801271#1 110801271#2 110801271#3 110801271#4" color="yellow" id="route_103"/>
    <route edges="-36928561 227574867#0 227574867#1 227574867#2 227574867#3 227574867#4 227574867#5 227574867#6 227574867#7 98835813#0 98835813#1 386578584#5 386578584#6 386578584#7 386578487#2 386578584#8 386578584#0 386578584#1 12386249#0 12386249#1 479127842 479127840 4256507 479127830 479127829 398030858 479127828 105482346 479187305 430528809 479187304 453274475 35047583 35047585 479187301#0 479187301#1 35044065 35044064 479192144 479192143 95841134 95841156 37113029 480083544 13797951#0 13797951#1 13798768 13798716#1 13798716#2 -256605510" color="yellow" id="route_104"/>
    <route edges="479198389 35044068 453274492 479198388 479198387 479198385 95841148 479198384 479198383 479187301#1 35044065 35044064 479192144 479192143 95841134 95841156 37113029 453274470 13797813 479365564 479365561 4257028 479365562 479365563 478886779 478882411 478886778 345566829 345566831 478886777 478886775 478886776 478886774 478886773 478886772 27293116 27293116.145 480146204 159959889 480146202 480146200 480146199 480146196 480146195 29036519#0 29036519#1 549454264#0 549454264#1" color="yellow" id="route_105"/>
    <route edges="479198389 35044068 453274492 479198388 479198387 453274495 479198386 479198382 35044072#2 35044072#3 35044072#4 35044072#0 479198381 479198380 35011273 479198379 479198374" color="yellow" id="route_106"/>
    <route edges="479198389 35044068 453274492 479198388 479198387 479198385 95841148 479198384 479198383 479187301#1 35044065 35044064 479192144 479192143 95841134 95841156 37113029 480083544 13797951#0 13797951#1 13798768 13798716#1 13798716#2 -256605510" color="yellow" id="route_107"/>
    <route edges="479198389 35044068 453274492 479198388 479198387 453274495 479198386 479198382 35044072#2 167487481 35474708 -30912902#1 -30912902#0 -39654094#0 -13714843#3 -448867793 -172963174#5 -172963174#4 -172963174#3 -172963174#2" color="yellow" id="route_108"/>
    <route edges="479198389 35044068 453274492 479198388 479198387 453274495 479198386 479198382 35044072#2 167487481 35474708 -30912902#1 -30912902#0 39654094#1 39654094#2 251256098 39654345 453493822#0 453762943#0 453762943#1 453762943#2 453762943#3 453762943#4 453762943#5 453762943#6 453761206#0 453761206#1 453761206#2 453761206#3 453761206#4 453761206#5 453761206#6 453761206#7 453761206#8 453761206#9 453761206#10 453761206#11 453761206#12 453761206#13 453761206#14 13715562 453761207 34772371#0 34772371#1 34772371#2 34772371#3 34772371#4 434872539#0 434872539#1 434872538 210669783 -287648900 167487357#0 167487357#1 14326572#0 14326572#1 14326572#2 14326572#3 60175941#0 60175941#1 60175941#2 60175941#3 60175941#4 60175941#5 60175941#6 60175941#7 60175941#8 216972581#0 216972581#1 216972581#2 216972581#3 216972581#4 216972581#5 216972581#6 216972801#0 216972801#1 608420973 448850568#0 448850568#1 210831460#0 210831460#1 715176794 307804461 715176795#0 715176795#1 -349620089 -349620090#4 -349620090#3 -349620090#2 -349620090#1 -349620090#0 -30417989#1 -30417989#0 -35171965#6 -35171965#5 -35171965#4 -35171965#3 -35171965#2 -35171965#1 -35171965#0 -211641909#1 -211641909#0 -211641911 -553528125 -482327709#5 -482327709#4 -482327709#3 -482327709#2 -482327709#1 -482327709#0 14327318#0 14327318#1 14327318#2 14327318#3 173072170 173072164" color="yellow" id="route_109"/>
    <route edges="460839284 35539786#0 35539786#1 447313060 63202748 447313061 63202744 13703057 13703054 479165875 453955769 479181126 479127855 479127854 386578590 663328755 479127853 663340772 8137307 453764134#0 453764134#1 386578584#3 386578584#4 386578584#5 gneE28 446557314#0 446557314#1 446557314#2 -12319876#1 -12319876#0 447104331 386578485 386578516 12391255 212711378 454037681 13714507 105637465 209436196#0 209436196#1 209436196#2 608419120#0 608419120#1 453762943#0 453762943#1 453762943#2 453762943#3 453762943#4 453762943#5 453762943#6 453761206#0 453761206#1 453761206#2 453761206#3 453761206#4 453761206#5 453761206#6 453761206#7 453761206#8 453761206#9 453761206#10 453761206#11 453761206#12 453761206#13 453761206#14 13715562 453761208 453761209 453761211#0 453761211#1 453761213 608419462#0 608419462#1 608419462#2 608419462#3 608419462#4 453762948#0 453762948#1 453761210#2 212708374#1 212708374#2 212710703#0 212710703#1 212710703#2 547657336 547657337 547657333#0 547657333#1 547657333#2 547657334 547657335 480140401#1 13798291#0 547657329 -34774629#2 -34774629#1 -34774629#0" color="yellow" id="route_11"/>
    <route edges="479198389 35044068 453274492 479198388 479198387 453274495 479198386 479198382 35044072#2 167487481 35474708 -30912902#1 -30912902#0 39654094#1 39654094#2 251256098 39654345 453493822#0 453762943#0 453762943#1 453762943#2 453762943#3 453762943#4 453762943#5 453762943#6 453761206#0 453761206#1 453761206#2 453761206#3 453761206#4 453761206#5 453761206#6 453761206#7 453761206#8 453761206#9 453761206#10 453761206#11 453761206#12 453761206#13 453761206#14 13797599#4 13797599#5 13797599#6 13797599#7 13797599#8 13797599#9 13797599#10 210670990 14329124#0 14329124#1 14329124#2 34988345#0 34988345#1 38336644 498298757#3 498298757#4 498298756 643196090 34607492#0 34607492#1 34607492#2 210669783 -287648900 167487357#0 167487357#1 14326572#0 14326572#1 14326572#2 14326572#3 60175941#0 60175941#1 60175941#2 60175941#3 60175941#4 60175941#5 60175941#6 60175941#7 60175941#8 216972581#0 216972581#1 216972581#2 216972581#3 216972581#4 216972581#5 216972581#6 216972801#0 216972801#1 608420973 448850568#0 448850568#1 210831460#0 210831460#1 715176794 307804461 715176795#0 715176795#1 -349620089 304684297#0 304684297#1 643548708 216891254#0 216891254#1 216891254#2 374346168#1 374346168#0 211119459 12300169#7 12300169#6 12300169#5 12300169#4 12300169#3 12300169#2 12300169#1 12300169#0 -13278020#4 -13278020#3 -13278020#2 -13278020#1 -13278020#0 -96151239#9 -96151239#8 -96151239#7 -96151239#6 -96151239#5" color="yellow" id="route_110"/>
    <route edges="gneE22 14326256#2 14326256#3 434884635#0 434884635#1 128245299 167487341 167487343 128245297 608418577 608418580#0 608418580#1 608418576 -13715172 -13715172.291 -610238564 -453493822#5 -453493822#4 -453493822#3 -453493822#2 -453493822#1 453762943#0 453762943#1 453762943#2 453762943#3 453762943#4 453762943#5 453762943#6 453761206#0 453761206#1 453761206#2 453761206#3 453761206#4 453761206#5 453761206#6 453761206#7 453761206#8 453761206#9 453761206#10 453761206#11 453761206#12 453761206#13 453761206#14 13715562 453761208 453761209 453761211#0 453761211#1 453761213 608419462#0 608419462#1 608419462#2 608419462#3 608419462#4 453762948#0 453762948#1 453761210#2 212708374#1 212708374#2 212710703#0 212710703#1 212710703#2 547657336 547657337 547657332 480140406 478886779 478882411 478886778 4259341 345566834 29036513 367461726 367461722" color="yellow" id="route_111"/>
    <route edges="gneE22 14326256#2 14326256#3 434884635#0 434884635#1 128245300 167487340 167487342 -725917117 -725917115 -725917412 -725917413 109406990#0 109406990#1 109406990#2 -109406986 34647798#1 34647798#2 30405489#0 30405489#1 39632140 -109406983 -434882601#1 -434882601#0 -610238564 -453493822#5 -453493822#4 -453493822#3 -453493822#2 -453493822#1 453762943#0 453762943#1 453762943#2 453762943#3 453762943#4 453762943#5 453762943#6 453761206#0 453761206#1 453761206#2 453761206#3 453761206#4 453761206#5 453761206#6 453761206#7 453761206#8 453761206#9 453761206#10 453761206#11 453761206#12 453761206#13 453761206#14 13715562 453761208 453761209 453761211#0 453761211#1 453761213 608419462#0 608419462#1 608419462#2 608419462#3 608419462#4 453762948#0 453762948#1 453762948#2 453762948#2.130 453762948#3 704509573#0 704509573#1 704509573#2 704509573#3 704509573#4 704509573#5 704509573#6 704509573#7 704509573#8 704509573#9 704509573#10 704509573#11 704509573#12 704509573#13 704509573#14 453493826#0 453493826#1 453493826#2 453494265#0 453494265#1 453494265#2 453494265#3 209442097#0 209442097#1 13262695#0 13262695#1 13262695#2 13262695#3 13262770 212711376 30912916 447104330#0 447104330#1 12319876#0 12319876#1 219527969 386578487#0 386578487#1 386578487#2 386578584#8 386578584#0 386578584#1 386578584#2 386578584#3 446557315#0 446557315#1 446557317#0 446557317#1 446557317#2 446557317#3 446557317#4 446557317#5 36928561" color="yellow" id="route_112"/>
    <route edges="479127834 479127834.42 479127833 4256484 479127846 106441012 479127845 479127844 479181462 479181124 479178724 479181127 479178722 479178723 597084097 597084096 453955770 13703046 13703039 63202741 479165071 479165072 415566516 447313531 447313062" color="yellow" id="route_113"/>
    <route edges="gneE36 gneE31 gneE32 gneE33 95791518 95791507 95802281 479127831 95802285 479127830 479127829 398030858 479127828 105482346 479187305 430528809 479187304 453274475 35047583 35047585 479187301#0 479187301#1 35044065 35044064 479192144 479192143 95841134 95841156 37113029 480083544 13797951#0 13797951#1 13798768 13798716#1 13798716#2 -256605510" color="yellow" id="route_114"/>
    <route edges="gneE36 gneE31 gneE32 gneE33 95791518 95791507 95802281 479127831 95802285 479127830 479127829 398030858 479127828 105482346 479187305 430528809 479187304 453274475 35047583 35047585 479187301#0 479187301#1 35044065 35044064 479192144 479192143 95841134 95841156 37113029 453274470 13797813 479365564 479365561 4257028 479365562 13798242 480084929#0 480084929#1 480140405 480084927#0 480084927#1 480084927#2 547657333#2 547657334 547657335 480140401#1 13798291#0 547657329 -34774629#2 -34774629#1 -34774629#0" color="yellow" id="route_115"/>
    <route edges="479127834 479127834.42 479127833 4256484 479127846 106441012 479127845 479127844 479181462 479181124 479178724 479181127 479178722 479178723 597084097 597084096 453955770 13703046 13703039 63202741 479165071 12298305#0 12298305#1 95841143 95841120 13848688#0 13848688#1 13848688#2 482276568 482276567 482264025#0 482264025#1 128363661 -482261341 -207634505#1 -207634505#0 39895287 39895285#1 39895285#2 -304688472 -26119992#11" color="yellow" id="route_116"/>
    <route edges="479127834 479127834.42 479127833 4256484 479127846 106441012 479127845 479127844 479181462 479181124 479178724 479181127 479178722 479178723 597084097 597084096 453955770 13703046 13703039 63202741 479165071 12298305#0 12298305#1 95841143 95841120 13848688#0 13848688#1 13848688#2 482276568 482276567 482276569#0 482240916#0 482276565#1 304680072 -224637998 gneE4 -14326205#4 13849075 13849088#1 13849088#2 13849088#3 13849088#4 207634505#0 207634505#1 482261341 304680071 482264026#1 482240913 292119381 128363658#0 128363658#1 128363658#2 128363658#3 128363658#4 128363658#5 224646232#0 224646232#1 224646232#2 224646232#3 224646232#4 224648421#0" color="yellow" id="route_117"/>
    <route edges="100 101 106440984 479127826 479127827 95791510 95791517 31573502 223288611 223288612 223288609 223288613 -12319876#1 -12319876#0 447104331 386578485 386578516 12391255 212711378 454037681 212711375#0 212711375#1 212711375#2 212711375#3 232445175#0 232445175#1 232445175#2 232445175#3 608418573#1 608418575 608418574#0 608418574#1 608418574#2 608418574#3 434882592 13848825#0 13848825#1 448860912#0 448860912#1 14326258" color="yellow" id="route_118"/>
    <route edges="256605510 13798688#0 13797903#0 13797903#1 480083542 479192142 95841138 37113028 479192134 304693638" color="yellow" id="route_119"/>
    <route edges="460839284 35539786#0 35539786#1 447313060 63202748 447313061 63202744 13703057 13703054 479165875 453955769 479181126 479127855 479127854 106441015 398030859 398035550 398030858 479127828 105482346 479187305 430528809 479187304 12389533 95841155 95841118 95841150 479198382 35044072#2 167487481 35474708 -30912902#1 -30912902#0 -39654094#0 -13714843#3 -13714843#2 -13714843#1 -13714843#0" color="yellow" id="route_12"/>
    <route edges="256605510 13798688#0 13797903#0 13797903#1 480083542 479192142 95841138 37113028 479192141 479192140 35044067 479192139 35044066 479192138 479187303 479192145 35047582 35047581 479127849 398030856 479127848 398030863 479183661 4256513 95791537 453763721" color="yellow" id="route_120"/>
    <route edges="256605510 13798688#0 13797903#0 13797903#1 480083542 479192142 95841138 37113028 479192141 479192140 35044067 479192139 35044066 479192138 479187303 479192145 35047582 35047581 479127849 398030856 479127848 398030857 479127847 398030861 105482347 479127846 106441012 479127845 479127844 479181462 479181124 479178724 479181127 479178722 479178723 597084097 597084096 453955770 13703046 13703039 63202741 479165071 479165072 415566516 447313531 447313062" color="yellow" id="route_121"/>
    <route edges="256605510 13798688#0 13798688#1 13798768 13797988#0 13797988#1 13797988#1.119 479365561 4257028 479365562 479365563 478886779 478882411 478886778 4259341 345566834 29036513 367461726 367461722" color="yellow" id="route_122"/>
    <route edges="256605510 13798688#0 13798688#1 13798768 13797988#0 13797988#1 13797988#1.119 479365561 4257028 479365562 479365563 478886779 478882411 478886778 345566829 345566831 478886777 478886775 478886776 478886774 478886773 478886772 478886771 29036508 480146192 480146191 480148052 35006698" color="yellow" id="route_123"/>
    <route edges="256605510 13798688#0 13798688#1 13798688#2 13798697 448867800 13797704#0 13797704#1 30912875 30912876#0 30912876#1 -30912876#1" color="yellow" id="route_124"/>
    <route edges="-386690150 -482122897 39549879#0 39549879#1 306780458#0 306780458#1 228569801#0 228569801#1 210670988 39657991#0 39657991#1 39657991#2 39657990 -13797599#10 -13797599#9 -13797599#8 -13797599#7 -13797599#6 -13797599#5 -13797599#4 -13797599#3 -13797599#2 704509573#1 704509573#2 704509573#3 704509573#4 704509573#5 704509573#6 704509573#7 704509573#8 704509573#9 704509573#10 704509573#11 704509573#12 453762947 453762946 453762944#0 453762944#1 453762944#2 453762944#3 453762944#4 706644344 724454820 724454821 580264834 388048413 425318823 425318823.136 434882601#0 434882601#1 109406983 128244780#1 13854847#0 13854847#1 13854847#2 608418576 -13715172 -13715172.291 -425318823 706644343#0 706644343#1 706644343#2 724454816 724454815 724454817 724454818 724454819 724454820 724454821 580264834 388048413 425318823 425318823.136 13715172 189908446 219527968#0 219527968#1 219527968#2 483715766#0 270443013 270443012" color="yellow" id="route_125"/>
    <route edges="549454263#0 549454263#1 536714314#0 13860800#0 13860800#1 13860802 35006697 478882419 480142667 4259343 367461722" color="yellow" id="route_126"/>
    <route edges="1 2 536714314#3 637225052 480146201 159959890 480146203 480146206 480146205 549444954 434878390#0 434878390#1 549444950 549444961 549444965 549444969 549444982#0 549444982#1 549444982#2 448850571 159959891#0 159959891#1 159959891#2 159959891#3 549269426#0 549269426#1 549269427 549269428#0 549269428#1 549269428#2 549269428#3 120692681#0 120692681#1 304690306 13263613#0 13263613#1 13263613#2 13263613#3 13265074#0 13265074#1 13265074#2 13265074#3 608419462#3 608419462#4 453762948#0 453762948#1 453761210#2 212708374#1 212708374#2 212710703#0 212710703#1 212710703#2 547657336 547657337 547657332 480140406 478886779 478882411 478886778 345566829 345566831 478886777 478886775 478886776 478886774 478886773 478886772 478886771 29036508 480146192 480146191 480148052 35006698" color="yellow" id="route_127"/>
    <route edges="1 2 536714314#3 637225052 480146201 159959890 480146203 480146206 480146205 549444954 434878390#0 434878390#1 549444950 549444961 549444965 549444969 549444982#0 549444982#1 549444982#2 448850571 159959891#0 159959891#1 159959891#2 159959891#3 549269426#0 549269426#1 549269427 549269428#0 549269428#1 549269428#2 549269428#3 120692681#0 120692681#1 304690306 13263613#0 13263613#1 13263613#2 13263613#3 13265074#0 -453762039#8 -453762039#7 -453762039#6 -453762039#5 -453762039#4 -453762039#3 -453762039#2 -453762039#1 -453762039#0 8367118#0 8367118#1 252526950#0 252526950#1 252526950#2 252526950#3 252526951#0 252526951#1 252526951#2 252526951#3 252526951#4 252526951#5 252526951#6 252526951#7 252526951#8 252526951#9 252526951#10 14327867 452075654#0 452075654#1 452075654#2 452075654#3 14333954#0 14333954#1 14333954#2 14333954#3 -261980638 -261980637#1 -261980637#0 221684836 221684839 -14327505#3 -14327505#2 -14327505#1 -14327505#0 30417987#0 30417987#1 30417987#2 30417987#3 14327318#0 14327318#1 14327318#2 14327318#3 173072170 173072164" color="yellow" id="route_128"/>
    <route edges="1 2 536714314#3 637225052 480146201 159959890 480146203 480146206 480146205 549444954 434878390#0 434878390#1 549444950 549444961 549444965 549444969 549444982#0 549444982#1 549444982#2 448850571 159959891#0 159959891#1 159959891#2 159959891#3 549269426#0 549269426#1 549269427 549269428#0 549269428#1 549269428#2 549269428#3 120692681#0 120692681#1 304690306 13263613#0 13263613#1 13263613#2 13263613#3 13265074#0 -453762039#8 -453762039#7 -453762039#6 -453762039#5 -453762039#4 -453762039#3 -453762039#2 -453762039#1 -453762039#0 8367118#0 8367118#1 252526950#0 252526950#1 252526950#2 252526950#3 252526951#0 252526951#1 252526951#2 252526951#3 252526951#4 252526951#5 252526951#6 252526951#7 252526951#8 252526951#9 252526951#10 14327867 452075654#0 452075654#1 452075654#2 452075654#3 14333954#0 14333954#1 14333954#2 -14333980 261980637#1 261980637#2 261980637#3 261980637#4 261980637#5 321496804#0 321496804#1 321496804#2 321496804#3 -31721081#4 -31721081#3 -31721081#2 -31721081#1" color="yellow" id="route_129"/>
    <route edges="460839284 35539786#0 35539786#1 447313060 63202748 447313061 63202744 13703057 13703054 479165875 453955769 479181126 479127855 479127854 106441015 398030859 398035550 398030858 479127828 105482346 479187305 430528809 479187304 12389533 95841155 95841118 95841150 479198382 35044072#2 167487481 35474708 -30912902#1 -30912902#0 39654094#1 39654094#2 251256098 39654345 453493822#0 453493822#1 453493822#2 453493822#3 453493822#4 453493822#5 610238564 13715172 189908446 608418578#0 608418578#1 608418573#0 608418573#1 454038641 705491647#0 705491647#1 705491647#2 705491645#0 705491645#1 705491645#2 705491645#3 705491645#4 705491645#5 705491645#6 224647868#0 224647868#1 224647868#2 224647868#3 224647868#4 224647868#5 546881512 189908447 327439257 589296694 135411081 110801275 110801271#0 110801271#1 110801271#2 110801271#3 110801271#4" color="yellow" id="route_13"/>
    <route edges="1 2 536714314#3 637225052 480146201 159959890 480146203 480146206 480146205 549444954 434878390#0 434878390#1 549444950 549444961 549444965 549444969 549444982#0 549444982#1 549444982#2 448850571 159959891#0 159959891#1 159959891#2 159959891#3 549269426#0 549269426#1 549269427 549269428#0 549269428#1 549269428#2 549269428#3 120692681#0 120692681#1 304690306 13263613#0 13263613#1 13263613#2 13263613#3 13265074#0 13265074#1 13265074#2 13265074#3 608419462#3 608419462#4 453762948#0 453762948#1 453762948#2 453762948#2.130 453762948#3 704509573#0 704509573#1 704509573#2 704509573#3 704509573#4 704509573#5 704509573#6 704509573#7 704509573#8 704509573#9 704509573#10 704509573#11 704509573#12 704509573#13 704509573#14 453493826#0 453493826#1 453493826#2 453494265#0 453494265#1 453494265#2 453494265#3 209442097#0 209442097#1 13262695#0 13262695#1 13262695#2 13262695#3 13262770 212711376 30912916 447104330#0 447104330#1 12319876#0 12319876#1 219527969 386578487#0 386578487#1 386578487#2 386578584#8 386578584#0 386578584#1 386578584#2 386578584#3 446557315#0 446557315#1 446557317#0 446557317#1 446557317#2 446557317#3 446557317#4 446557317#5 36928561" color="yellow" id="route_130"/>
    <route edges="1 2 536714314#3 637225052 480146201 159959890 480146203 480146206 480146205 549444954 434878390#0 434878390#1 549444950 549444961 549444965 549444969 549444982#0 549444982#1 549444982#2 448850571 159959891#0 159959891#1 159959891#2 159959891#3 549269426#0 549269426#1 549269427 549269428#0 549269428#1 549269428#2 549269428#3 549269433 27149272 -549266388 -482324643#1 -482324643#0 -549266390 -549266389 -549266394#1 -549266394#0 -549266391#1 -549266391#0 -549266392 -549266393#1 -549266393#0 -482327703#1 -482327703#0 -549266395 -549266396 -549266397#1 -549266397#0 -549266398#1 -549266398#0 -549266401#1 -549266401#0 -549266399#1 -549266399#0 -549266400#1 -549266400#0 -482324651#1 -482324651#0 -549266404#2 -549266404#1 -549266404#0 -549266403 -336758567#1 -336758567#0 -549266406#1 -549266406#0 549266412#0 549266412#1 549266412#2 -549266409#2 -549266409#1 -549266409#0 482324638#0 482324638#1 482324638#2 482324638#3 482324638#4 36268853#0 36268853#1 463280224#0 463280224#1 463280224#2 14328611 391839883 391839888#0 391839888#1 391839888#2 261980637#4 261980637#5 321496804#0 321496804#1 321496804#2 321496804#3 -31721081#4 -31721081#3 -31721081#2 -31721081#1 -31721081#0" color="yellow" id="route_131"/>
    <route edges="207634521#0 207634521#1 207634521#2 207634521#3 609303035 609303043#0 609303043#1 482318529#1 482318529#2 482318529#3 482318529#4 482318529#5 482318529#6 482318529#7 482318529#8 549266402 482324651#0 482324651#1 549266400#0 549266400#1 549266399#0 549266399#1 549266401#0 549266401#1 549266398#0 549266398#1 549266397#0 549266397#1 549266396 549266395 482327703#0 482327703#1 549266393#0 549266393#1 549266392 549266391#0 549266391#1 549266394#0 549266394#1 549266389 549266390 482324643#0 482324643#1 549266388 549269430 549269431#0 549269431#1 549269431#2 549444986#0 549444986#1 549444986#2 549444986#3 549444985 482324642#0 482324642#1 549444984#0 549444984#1 434879917#0 434879917#1 453725103#0 453725103#1 453725103#2 453725103#3 453725103#4 549444975 549444979#0 549444979#1 549444981#0 549444981#1 549444981#2 549444946 549444947#0 549444947#1 480146204 159959889 480146202 480146200 480146199 480146196 480146195 29036519#0 29036519#1 549454264#0 549454264#1" color="yellow" id="route_132"/>
    <route edges="208580373#1 8367104#0 8367104#1 8367104#2 8367104#3 8367104#4 8367104#5 8367104#6 8367104#7 8367104#8 8367104#9 8367104#10 112465243#0 112465243#1 112465243#2 112465243#3 -239593895#2 -239593895#1 -239593895#0 -220232893#4 -220232893#3 -220232893#2 -220232893#1 -220232893#0 190128487#0 190128487#1 190128487#2 190128487#3 190128487#4 190128487#5 190128487#6 215162243#0 215162243#1 216972581#4 216972581#5 216972581#6 216972801#0 216972801#1 608420973 608420971#0 608420971#1 434872534#0 434872534#1 434872534#2 434872534#3 434872534#4 434872534#5 434872534#6 60175590#0 60175590#1 60175590#2 60175590#3 38336628#0 38336628#1 38336628#2 38336628#3 38336628#4 38336628#5 608420970#0 608420970#1 608420970#2 287648900 95843585 38336638#0 38336638#1 38336638#2 210673563#0 210673563#1 210673563#2 210673563#3 210673563#4 210673563#5 210673563#6 210673563#7 178413108 -252526954 -34597437#3 -34597437#2 -34597437#1 -34597437#0 8367155#0 8367155#1 13716160 608419462#2 608419462#3 608419462#4 453762948#0 453762948#1 453762948#2 453762948#2.130 31396393 453761207 34772371#0 34772371#1 34772371#2 34772371#3 34772371#4 434872539#0 434872539#1 434872538 210669783 -287648900 167487357#0 167487357#1 14326572#0 14326572#1 14326572#2 14326572#3 60175941#0 60175941#1 60175941#2 60175941#3 60175941#4 60175941#5 60175941#6 60175941#7 60175941#8 216972581#0 216972581#1 216972581#2 216972581#3 26119900#0 26119900#1 26119880 210073259 124539825 156208919#0 156208919#1 28193886 156211619 13801868#1 258853581#0 258853581#1 258853581#2 258853581#3 258853581#4 13802005 259888928#0 259888928#1 259888928#2 259888928#3 14326493#0 14326493#1 14326493#2 14326493#3 14326493#4 211436103#0 211436103#1 697598025 697598026 14326464#0 14326464#1 14326464#2 14326464#3 14326464#4 14326464#5 14326464#6 14326464#7 14326558#0 14326558#1 14326558#2 304682487#0 304682487#1 304682487#2 304682487#3 304682487#4 643548702 216891255#0 216891255#1 216891255#2 216891255#3 349620091 643548708 216891254#0 216891254#1 216891254#2 374346168#1 374346168#0 211119459 12300169#7 12300169#6 12300169#5 12300169#4 12300169#3 12300169#2 12300169#1 12300169#0 13278020#5 13278020#6 13278020#7 13278020#8 420021610 420021609 226908049 13278159#0 13278159#1 12544650 238872916#0 238872916#1 238872916#2 238872916#3 238872916#4 238872916#5 238872916#6 238872916#7" color="yellow" id="route_133"/>
    <route edges="-224648421#0 -224646232#4 -224646232#3 -224646232#2 -224646232#1 -224646232#0 -128363658#5 -128363658#4 -128363658#3 39911779 128363657#1 12297977 95841122 95841144 95841106 95841100 447313531 447313062" color="yellow" id="route_134"/>
    <route edges="-224648421#0 -224646232#4 -224646232#3 -224646232#2 -224646232#1 -224646232#0 -128363658#5 -128363658#4 -128363658#3 -128363658#2 -128363658#1 -128363658#0 128363659#0 482240915#1 128363661 -482261341 -207634505#1 -207634505#0 -482261338#1 -482261338#0 -482261339#1 -482261339#0 -207634523#1 -207634523#0 482296562 212706766#0 212706766#1 13800986#0 13800986#1 252519111 30405423#0 30405423#1 -8367073 726827145" color="yellow" id="route_135"/>